MODEL 1
REMARK VINA RESULT:     -11.3      0.000      0.000
REMARK  Name = aganitha_data/bbio_mols_pdbqt/5.pdb
REMARK  7 active torsions:
REMARK  status: ('A' for Active; 'I' for Inactive)
REMARK    1  A    between atoms: C1_2  and  C10_12
REMARK    2  A    between atoms: N1_3  and  C2_4
REMARK    3  A    between atoms: C7_9  and  C8_10
REMARK    4  A    between atoms: C12_15  and  C13_16
REMARK    5  A    between atoms: C13_16  and  S1_17
REMARK    6  A    between atoms: S1_17  and  C14_18
REMARK    7  A    between atoms: C22_28  and  C23_29
REMARK                            x       y       z     vdW  Elec       q    Type
REMARK                         _______ _______ _______ _____ _____    ______ ____
ROOT
ATOM      1  C10 UNL     1     128.627 115.593 134.071  0.00  0.00    +0.000 A 
ATOM      2  C11 UNL     1     129.073 116.198 135.223  0.00  0.00    +0.000 A 
ATOM      3  F1  UNL     1     130.373 116.491 135.467  0.00  0.00    +0.000 F 
ATOM      4  C12 UNL     1     128.190 116.592 136.248  0.00  0.00    +0.000 A 
ATOM      5  C20 UNL     1     126.868 116.333 136.017  0.00  0.00    +0.000 A 
ATOM      6  C21 UNL     1     126.412 115.730 134.869  0.00  0.00    +0.000 A 
ATOM      7  C22 UNL     1     127.290 115.337 133.848  0.00  0.00    +0.000 A 
ENDROOT
BRANCH   1   9
ATOM      8  O1  UNL     1     129.987 113.954 133.123  0.00  0.00    +0.000 OA
ATOM      9  C1  UNL     1     129.601 115.139 133.053  0.00  0.00    +0.000 C 
ATOM     10  N1  UNL     1     130.115 115.938 132.027  0.00  0.00    +0.000 N 
ATOM     11  H1  UNL     1     129.837 116.948 131.982  0.00  0.00    +0.000 HD
BRANCH  10  12
ATOM     12  C2  UNL     1     131.058 115.463 131.065  0.00  0.00    +0.000 A 
ATOM     13  C3  UNL     1     131.208 114.153 130.699  0.00  0.00    +0.000 A 
ATOM     14  C4  UNL     1     132.243 113.801 129.816  0.00  0.00    +0.000 A 
ATOM     15  C5  UNL     1     133.096 114.733 129.319  0.00  0.00    +0.000 A 
ATOM     16  C6  UNL     1     132.947 116.036 129.682  0.00  0.00    +0.000 A 
ATOM     17  C7  UNL     1     131.933 116.430 130.555  0.00  0.00    +0.000 A 
BRANCH  17  18
ATOM     18  C8  UNL     1     131.815 117.858 130.811  0.00  0.00    +0.000 C 
ATOM     19  C9  UNL     1     132.373 118.787 130.074  0.00  0.00    +0.000 C 
ENDBRANCH  17  18
ENDBRANCH  10  12
ENDBRANCH   1   9
BRANCH   7  20
ATOM     20  C23 UNL     1     126.719 114.716 132.622  0.00  0.00    +0.000 C 
ATOM     21  F2  UNL     1     127.200 113.476 132.344  0.00  0.00    +0.000 F 
ATOM     22  F3  UNL     1     126.998 115.561 131.532  0.00  0.00    +0.000 F 
ATOM     23  F4  UNL     1     125.317 114.702 132.646  0.00  0.00    +0.000 F 
ENDBRANCH   7  20
BRANCH   4  24
ATOM     24  C13 UNL     1     128.724 117.263 137.447  0.00  0.00    +0.000 C 
BRANCH  24  25
ATOM     25  S1  UNL     1     129.202 118.922 137.299  0.00  0.00    +0.000 S 
ATOM     26  O2  UNL     1     128.064 119.816 137.792  0.00  0.00    +0.000 OA
ATOM     27  O3  UNL     1     130.368 119.193 138.220  0.00  0.00    +0.000 OA
BRANCH  25  28
ATOM     28  C14 UNL     1     129.630 119.459 135.711  0.00  0.00    +0.000 A 
ATOM     29  C15 UNL     1     128.690 120.131 134.913  0.00  0.00    +0.000 A 
ATOM     30  C16 UNL     1     129.004 120.607 133.660  0.00  0.00    +0.000 A 
ATOM     31  C17 UNL     1     130.262 120.445 133.127  0.00  0.00    +0.000 A 
ATOM     32  C18 UNL     1     131.204 119.790 133.885  0.00  0.00    +0.000 A 
ATOM     33  C19 UNL     1     130.871 119.315 135.152  0.00  0.00    +0.000 A 
ENDBRANCH  25  28
ENDBRANCH  24  25
ENDBRANCH   4  24
TORSDOF 7
ENDMDL
MODEL 2
REMARK VINA RESULT:     -11.2      1.114      1.831
REMARK  Name = aganitha_data/bbio_mols_pdbqt/5.pdb
REMARK  7 active torsions:
REMARK  status: ('A' for Active; 'I' for Inactive)
REMARK    1  A    between atoms: C1_2  and  C10_12
REMARK    2  A    between atoms: N1_3  and  C2_4
REMARK    3  A    between atoms: C7_9  and  C8_10
REMARK    4  A    between atoms: C12_15  and  C13_16
REMARK    5  A    between atoms: C13_16  and  S1_17
REMARK    6  A    between atoms: S1_17  and  C14_18
REMARK    7  A    between atoms: C22_28  and  C23_29
REMARK                            x       y       z     vdW  Elec       q    Type
REMARK                         _______ _______ _______ _____ _____    ______ ____
ROOT
ATOM      1  C10 UNL     1     128.849 116.207 134.110  0.00  0.00    +0.000 A 
ATOM      2  C11 UNL     1     129.266 116.485 135.391  0.00  0.00    +0.000 A 
ATOM      3  F1  UNL     1     130.532 116.846 135.710  0.00  0.00    +0.000 F 
ATOM      4  C12 UNL     1     128.384 116.442 136.489  0.00  0.00    +0.000 A 
ATOM      5  C20 UNL     1     127.092 116.108 136.192  0.00  0.00    +0.000 A 
ATOM      6  C21 UNL     1     126.664 115.829 134.917  0.00  0.00    +0.000 A 
ATOM      7  C22 UNL     1     127.542 115.871 133.823  0.00  0.00    +0.000 A 
ENDROOT
BRANCH   1   9
ATOM      8  O1  UNL     1     130.301 115.096 132.664  0.00  0.00    +0.000 OA
ATOM      9  C1  UNL     1     129.828 116.201 133.001  0.00  0.00    +0.000 C 
ATOM     10  N1  UNL     1     130.258 117.337 132.310  0.00  0.00    +0.000 N 
ATOM     11  H1  UNL     1     129.908 118.279 132.612  0.00  0.00    +0.000 HD
BRANCH  10  12
ATOM     12  C2  UNL     1     131.211 117.291 131.247  0.00  0.00    +0.000 A 
ATOM     13  C3  UNL     1     131.660 116.145 130.649  0.00  0.00    +0.000 A 
ATOM     14  C4  UNL     1     132.675 116.227 129.682  0.00  0.00    +0.000 A 
ATOM     15  C5  UNL     1     133.219 117.420 129.326  0.00  0.00    +0.000 A 
ATOM     16  C6  UNL     1     132.772 118.560 129.919  0.00  0.00    +0.000 A 
ATOM     17  C7  UNL     1     131.766 118.525 130.884  0.00  0.00    +0.000 A 
BRANCH  17  18
ATOM     18  C8  UNL     1     131.308 119.810 131.392  0.00  0.00    +0.000 C 
ATOM     19  C9  UNL     1     132.089 120.845 131.584  0.00  0.00    +0.000 C 
ENDBRANCH  17  18
ENDBRANCH  10  12
ENDBRANCH   1   9
BRANCH   7  20
ATOM     20  C23 UNL     1     126.999 115.583 132.468  0.00  0.00    +0.000 C 
ATOM     21  F2  UNL     1     127.234 116.556 131.549  0.00  0.00    +0.000 F 
ATOM     22  F3  UNL     1     125.608 115.401 132.583  0.00  0.00    +0.000 F 
ATOM     23  F4  UNL     1     127.430 114.340 131.983  0.00  0.00    +0.000 F 
ENDBRANCH   7  20
BRANCH   4  24
ATOM     24  C13 UNL     1     128.883 116.780 137.835  0.00  0.00    +0.000 C 
BRANCH  24  25
ATOM     25  S1  UNL     1     129.168 118.451 138.195  0.00  0.00    +0.000 S 
ATOM     26  O2  UNL     1     128.016 118.982 139.048  0.00  0.00    +0.000 OA
ATOM     27  O3  UNL     1     130.407 118.578 139.049  0.00  0.00    +0.000 OA
BRANCH  25  28
ATOM     28  C14 UNL     1     129.335 119.512 136.837  0.00  0.00    +0.000 A 
ATOM     29  C15 UNL     1     130.596 119.726 136.258  0.00  0.00    +0.000 A 
ATOM     30  C16 UNL     1     130.765 120.532 135.154  0.00  0.00    +0.000 A 
ATOM     31  C17 UNL     1     129.698 121.169 134.563  0.00  0.00    +0.000 A 
ATOM     32  C18 UNL     1     128.450 120.978 135.109  0.00  0.00    +0.000 A 
ATOM     33  C19 UNL     1     128.297 120.159 136.226  0.00  0.00    +0.000 A 
ENDBRANCH  25  28
ENDBRANCH  24  25
ENDBRANCH   4  24
TORSDOF 7
ENDMDL
MODEL 3
REMARK VINA RESULT:     -11.0      0.601      1.215
REMARK  Name = aganitha_data/bbio_mols_pdbqt/5.pdb
REMARK  7 active torsions:
REMARK  status: ('A' for Active; 'I' for Inactive)
REMARK    1  A    between atoms: C1_2  and  C10_12
REMARK    2  A    between atoms: N1_3  and  C2_4
REMARK    3  A    between atoms: C7_9  and  C8_10
REMARK    4  A    between atoms: C12_15  and  C13_16
REMARK    5  A    between atoms: C13_16  and  S1_17
REMARK    6  A    between atoms: S1_17  and  C14_18
REMARK    7  A    between atoms: C22_28  and  C23_29
REMARK                            x       y       z     vdW  Elec       q    Type
REMARK                         _______ _______ _______ _____ _____    ______ ____
ROOT
ATOM      1  C10 UNL     1     128.537 115.636 134.244  0.00  0.00    +0.000 A 
ATOM      2  C11 UNL     1     128.976 116.033 135.486  0.00  0.00    +0.000 A 
ATOM      3  F1  UNL     1     130.281 116.203 135.806  0.00  0.00    +0.000 F 
ATOM      4  C12 UNL     1     128.081 116.325 136.535  0.00  0.00    +0.000 A 
ATOM      5  C20 UNL     1     126.755 116.189 136.231  0.00  0.00    +0.000 A 
ATOM      6  C21 UNL     1     126.306 115.794 134.994  0.00  0.00    +0.000 A 
ATOM      7  C22 UNL     1     127.196 115.502 133.949  0.00  0.00    +0.000 A 
ENDROOT
BRANCH   1   9
ATOM      8  O1  UNL     1     129.926 114.097 133.177  0.00  0.00    +0.000 OA
ATOM      9  C1  UNL     1     129.518 115.277 133.196  0.00  0.00    +0.000 C 
ATOM     10  N1  UNL     1     130.018 116.160 132.234  0.00  0.00    +0.000 N 
ATOM     11  H1  UNL     1     129.722 117.165 132.264  0.00  0.00    +0.000 HD
BRANCH  10  12
ATOM     12  C2  UNL     1     130.969 115.775 131.240  0.00  0.00    +0.000 A 
ATOM     13  C3  UNL     1     131.211 114.487 130.846  0.00  0.00    +0.000 A 
ATOM     14  C4  UNL     1     132.246 114.231 129.932  0.00  0.00    +0.000 A 
ATOM     15  C5  UNL     1     133.011 115.235 129.429  0.00  0.00    +0.000 A 
ATOM     16  C6  UNL     1     132.770 116.517 129.820  0.00  0.00    +0.000 A 
ATOM     17  C7  UNL     1     131.752 116.816 130.724  0.00  0.00    +0.000 A 
BRANCH  17  18
ATOM     18  C8  UNL     1     131.530 118.226 131.009  0.00  0.00    +0.000 C 
ATOM     19  C9  UNL     1     132.488 119.113 131.127  0.00  0.00    +0.000 C 
ENDBRANCH  17  18
ENDBRANCH  10  12
ENDBRANCH   1   9
BRANCH   7  20
ATOM     20  C23 UNL     1     126.634 115.108 132.629  0.00  0.00    +0.000 C 
ATOM     21  F2  UNL     1     125.306 114.821 132.646  0.00  0.00    +0.000 F 
ATOM     22  F3  UNL     1     127.333 113.973 132.176  0.00  0.00    +0.000 F 
ATOM     23  F4  UNL     1     126.916 116.056 131.635  0.00  0.00    +0.000 F 
ENDBRANCH   7  20
BRANCH   4  24
ATOM     24  C13 UNL     1     128.610 116.775 137.835  0.00  0.00    +0.000 C 
BRANCH  24  25
ATOM     25  S1  UNL     1     129.130 118.422 137.970  0.00  0.00    +0.000 S 
ATOM     26  O2  UNL     1     128.072 119.220 138.731  0.00  0.00    +0.000 OA
ATOM     27  O3  UNL     1     130.381 118.487 138.813  0.00  0.00    +0.000 OA
BRANCH  25  28
ATOM     28  C14 UNL     1     129.435 119.255 136.484  0.00  0.00    +0.000 A 
ATOM     29  C15 UNL     1     130.639 119.050 135.791  0.00  0.00    +0.000 A 
ATOM     30  C16 UNL     1     130.902 119.665 134.588  0.00  0.00    +0.000 A 
ATOM     31  C17 UNL     1     129.991 120.515 134.003  0.00  0.00    +0.000 A 
ATOM     32  C18 UNL     1     128.803 120.735 134.659  0.00  0.00    +0.000 A 
ATOM     33  C19 UNL     1     128.551 120.105 135.876  0.00  0.00    +0.000 A 
ENDBRANCH  25  28
ENDBRANCH  24  25
ENDBRANCH   4  24
TORSDOF 7
ENDMDL
MODEL 4
REMARK VINA RESULT:     -10.9      2.489      4.186
REMARK  Name = aganitha_data/bbio_mols_pdbqt/5.pdb
REMARK  7 active torsions:
REMARK  status: ('A' for Active; 'I' for Inactive)
REMARK    1  A    between atoms: C1_2  and  C10_12
REMARK    2  A    between atoms: N1_3  and  C2_4
REMARK    3  A    between atoms: C7_9  and  C8_10
REMARK    4  A    between atoms: C12_15  and  C13_16
REMARK    5  A    between atoms: C13_16  and  S1_17
REMARK    6  A    between atoms: S1_17  and  C14_18
REMARK    7  A    between atoms: C22_28  and  C23_29
REMARK                            x       y       z     vdW  Elec       q    Type
REMARK                         _______ _______ _______ _____ _____    ______ ____
ROOT
ATOM      1  C10 UNL     1     128.646 117.179 135.495  0.00  0.00    +0.000 A 
ATOM      2  C11 UNL     1     129.687 118.034 135.218  0.00  0.00    +0.000 A 
ATOM      3  F1  UNL     1     130.475 117.934 134.121  0.00  0.00    +0.000 F 
ATOM      4  C12 UNL     1     130.004 119.120 136.059  0.00  0.00    +0.000 A 
ATOM      5  C20 UNL     1     129.207 119.263 137.160  0.00  0.00    +0.000 A 
ATOM      6  C21 UNL     1     128.164 118.415 137.446  0.00  0.00    +0.000 A 
ATOM      7  C22 UNL     1     127.848 117.333 136.610  0.00  0.00    +0.000 A 
ENDROOT
BRANCH   1   9
ATOM      8  O1  UNL     1     128.944 114.938 134.928  0.00  0.00    +0.000 OA
ATOM      9  C1  UNL     1     128.395 116.015 134.617  0.00  0.00    +0.000 C 
ATOM     10  N1  UNL     1     127.595 116.037 133.471  0.00  0.00    +0.000 N 
ATOM     11  H1  UNL     1     127.165 116.945 133.168  0.00  0.00    +0.000 HD
BRANCH  10  12
ATOM     12  C2  UNL     1     127.381 114.892 132.645  0.00  0.00    +0.000 A 
ATOM     13  C3  UNL     1     126.507 113.877 132.927  0.00  0.00    +0.000 A 
ATOM     14  C4  UNL     1     126.463 112.754 132.084  0.00  0.00    +0.000 A 
ATOM     15  C5  UNL     1     127.269 112.655 130.995  0.00  0.00    +0.000 A 
ATOM     16  C6  UNL     1     128.137 113.664 130.713  0.00  0.00    +0.000 A 
ATOM     17  C7  UNL     1     128.213 114.798 131.522  0.00  0.00    +0.000 A 
BRANCH  17  18
ATOM     18  C8  UNL     1     129.117 115.851 131.082  0.00  0.00    +0.000 C 
ATOM     19  C9  UNL     1     130.412 115.701 130.951  0.00  0.00    +0.000 C 
ENDBRANCH  17  18
ENDBRANCH  10  12
ENDBRANCH   1   9
BRANCH   7  20
ATOM     20  C23 UNL     1     126.687 116.475 136.970  0.00  0.00    +0.000 C 
ATOM     21  F2  UNL     1     125.760 116.341 135.986  0.00  0.00    +0.000 F 
ATOM     22  F3  UNL     1     126.063 117.035 138.101  0.00  0.00    +0.000 F 
ATOM     23  F4  UNL     1     127.090 115.216 137.436  0.00  0.00    +0.000 F 
ENDBRANCH   7  20
BRANCH   4  24
ATOM     24  C13 UNL     1     131.113 120.021 135.694  0.00  0.00    +0.000 C 
BRANCH  24  25
ATOM     25  S1  UNL     1     130.831 121.181 134.438  0.00  0.00    +0.000 S 
ATOM     26  O2  UNL     1     129.336 121.488 134.367  0.00  0.00    +0.000 OA
ATOM     27  O3  UNL     1     131.503 122.485 134.798  0.00  0.00    +0.000 OA
BRANCH  25  28
ATOM     28  C14 UNL     1     131.343 120.730 132.847  0.00  0.00    +0.000 A 
ATOM     29  C15 UNL     1     132.400 121.411 132.223  0.00  0.00    +0.000 A 
ATOM     30  C16 UNL     1     132.861 121.058 130.975  0.00  0.00    +0.000 A 
ATOM     31  C17 UNL     1     132.302 120.013 130.275  0.00  0.00    +0.000 A 
ATOM     32  C18 UNL     1     131.264 119.326 130.860  0.00  0.00    +0.000 A 
ATOM     33  C19 UNL     1     130.810 119.697 132.125  0.00  0.00    +0.000 A 
ENDBRANCH  25  28
ENDBRANCH  24  25
ENDBRANCH   4  24
TORSDOF 7
ENDMDL
MODEL 5
REMARK VINA RESULT:     -10.9      2.691      5.168
REMARK  Name = aganitha_data/bbio_mols_pdbqt/5.pdb
REMARK  7 active torsions:
REMARK  status: ('A' for Active; 'I' for Inactive)
REMARK    1  A    between atoms: C1_2  and  C10_12
REMARK    2  A    between atoms: N1_3  and  C2_4
REMARK    3  A    between atoms: C7_9  and  C8_10
REMARK    4  A    between atoms: C12_15  and  C13_16
REMARK    5  A    between atoms: C13_16  and  S1_17
REMARK    6  A    between atoms: S1_17  and  C14_18
REMARK    7  A    between atoms: C22_28  and  C23_29
REMARK                            x       y       z     vdW  Elec       q    Type
REMARK                         _______ _______ _______ _____ _____    ______ ____
ROOT
ATOM      1  C10 UNL     1     130.947 119.269 132.301  0.00  0.00    +0.000 A 
ATOM      2  C11 UNL     1     129.977 119.383 133.269  0.00  0.00    +0.000 A 
ATOM      3  F1  UNL     1     129.072 118.415 133.550  0.00  0.00    +0.000 F 
ATOM      4  C12 UNL     1     129.864 120.531 134.080  0.00  0.00    +0.000 A 
ATOM      5  C20 UNL     1     130.783 121.514 133.838  0.00  0.00    +0.000 A 
ATOM      6  C21 UNL     1     131.756 121.409 132.874  0.00  0.00    +0.000 A 
ATOM      7  C22 UNL     1     131.869 120.267 132.065  0.00  0.00    +0.000 A 
ENDROOT
BRANCH   1   9
ATOM      8  O1  UNL     1     130.983 118.263 130.198  0.00  0.00    +0.000 OA
ATOM      9  C1  UNL     1     130.982 118.072 131.431  0.00  0.00    +0.000 C 
ATOM     10  N1  UNL     1     131.013 116.752 131.891  0.00  0.00    +0.000 N 
ATOM     11  H1  UNL     1     130.965 116.571 132.923  0.00  0.00    +0.000 HD
BRANCH  10  12
ATOM     12  C2  UNL     1     131.041 115.621 131.019  0.00  0.00    +0.000 A 
ATOM     13  C3  UNL     1     132.151 115.176 130.352  0.00  0.00    +0.000 A 
ATOM     14  C4  UNL     1     132.025 114.113 129.443  0.00  0.00    +0.000 A 
ATOM     15  C5  UNL     1     130.826 113.517 129.212  0.00  0.00    +0.000 A 
ATOM     16  C6  UNL     1     129.723 113.959 129.875  0.00  0.00    +0.000 A 
ATOM     17  C7  UNL     1     129.802 115.010 130.787  0.00  0.00    +0.000 A 
BRANCH  17  18
ATOM     18  C8  UNL     1     128.578 115.347 131.499  0.00  0.00    +0.000 C 
ATOM     19  C9  UNL     1     127.595 116.043 130.983  0.00  0.00    +0.000 C 
ENDBRANCH  17  18
ENDBRANCH  10  12
ENDBRANCH   1   9
BRANCH   7  20
ATOM     20  C23 UNL     1     132.966 120.215 131.062  0.00  0.00    +0.000 C 
ATOM     21  F2  UNL     1     133.645 119.039 131.031  0.00  0.00    +0.000 F 
ATOM     22  F3  UNL     1     133.874 121.251 131.351  0.00  0.00    +0.000 F 
ATOM     23  F4  UNL     1     132.518 120.554 129.777  0.00  0.00    +0.000 F 
ENDBRANCH   7  20
BRANCH   4  24
ATOM     24  C13 UNL     1     128.823 120.584 135.122  0.00  0.00    +0.000 C 
BRANCH  24  25
ATOM     25  S1  UNL     1     129.146 119.790 136.628  0.00  0.00    +0.000 S 
ATOM     26  O2  UNL     1     130.649 119.833 136.903  0.00  0.00    +0.000 OA
ATOM     27  O3  UNL     1     128.499 120.564 137.753  0.00  0.00    +0.000 OA
BRANCH  25  28
ATOM     28  C14 UNL     1     128.646 118.138 136.749  0.00  0.00    +0.000 A 
ATOM     29  C15 UNL     1     129.578 117.101 136.579  0.00  0.00    +0.000 A 
ATOM     30  C16 UNL     1     129.227 115.776 136.706  0.00  0.00    +0.000 A 
ATOM     31  C17 UNL     1     127.937 115.403 137.007  0.00  0.00    +0.000 A 
ATOM     32  C18 UNL     1     127.002 116.396 137.179  0.00  0.00    +0.000 A 
ATOM     33  C19 UNL     1     127.373 117.733 137.048  0.00  0.00    +0.000 A 
ENDBRANCH  25  28
ENDBRANCH  24  25
ENDBRANCH   4  24
TORSDOF 7
ENDMDL
MODEL 6
REMARK VINA RESULT:     -10.8      2.510      5.768
REMARK  Name = aganitha_data/bbio_mols_pdbqt/5.pdb
REMARK  7 active torsions:
REMARK  status: ('A' for Active; 'I' for Inactive)
REMARK    1  A    between atoms: C1_2  and  C10_12
REMARK    2  A    between atoms: N1_3  and  C2_4
REMARK    3  A    between atoms: C7_9  and  C8_10
REMARK    4  A    between atoms: C12_15  and  C13_16
REMARK    5  A    between atoms: C13_16  and  S1_17
REMARK    6  A    between atoms: S1_17  and  C14_18
REMARK    7  A    between atoms: C22_28  and  C23_29
REMARK                            x       y       z     vdW  Elec       q    Type
REMARK                         _______ _______ _______ _____ _____    ______ ____
ROOT
ATOM      1  C10 UNL     1     128.637 117.397 134.034  0.00  0.00    +0.000 A 
ATOM      2  C11 UNL     1     127.831 116.655 133.202  0.00  0.00    +0.000 A 
ATOM      3  F1  UNL     1     127.803 116.795 131.855  0.00  0.00    +0.000 F 
ATOM      4  C12 UNL     1     126.972 115.652 133.696  0.00  0.00    +0.000 A 
ATOM      5  C20 UNL     1     127.000 115.470 135.050  0.00  0.00    +0.000 A 
ATOM      6  C21 UNL     1     127.802 116.204 135.890  0.00  0.00    +0.000 A 
ATOM      7  C22 UNL     1     128.657 117.203 135.399  0.00  0.00    +0.000 A 
ENDROOT
BRANCH   1   9
ATOM      8  O1  UNL     1     128.995 119.637 133.495  0.00  0.00    +0.000 OA
ATOM      9  C1  UNL     1     129.472 118.483 133.474  0.00  0.00    +0.000 C 
ATOM     10  N1  UNL     1     130.746 118.309 132.925  0.00  0.00    +0.000 N 
ATOM     11  H1  UNL     1     131.141 117.340 132.855  0.00  0.00    +0.000 HD
BRANCH  10  12
ATOM     12  C2  UNL     1     131.519 119.384 132.389  0.00  0.00    +0.000 A 
ATOM     13  C3  UNL     1     131.626 120.626 132.953  0.00  0.00    +0.000 A 
ATOM     14  C4  UNL     1     132.336 121.630 132.273  0.00  0.00    +0.000 A 
ATOM     15  C5  UNL     1     132.920 121.392 131.069  0.00  0.00    +0.000 A 
ATOM     16  C6  UNL     1     132.814 120.157 130.509  0.00  0.00    +0.000 A 
ATOM     17  C7  UNL     1     132.120 119.131 131.149  0.00  0.00    +0.000 A 
BRANCH  17  18
ATOM     18  C8  UNL     1     132.139 117.829 130.499  0.00  0.00    +0.000 C 
ATOM     19  C9  UNL     1     132.867 117.542 129.447  0.00  0.00    +0.000 C 
ENDBRANCH  17  18
ENDBRANCH  10  12
ENDBRANCH   1   9
BRANCH   7  20
ATOM     20  C23 UNL     1     129.517 117.938 136.367  0.00  0.00    +0.000 C 
ATOM     21  F2  UNL     1     130.828 118.004 136.017  0.00  0.00    +0.000 F 
ATOM     22  F3  UNL     1     129.417 117.296 137.616  0.00  0.00    +0.000 F 
ATOM     23  F4  UNL     1     129.019 119.219 136.642  0.00  0.00    +0.000 F 
ENDBRANCH   7  20
BRANCH   4  24
ATOM     24  C13 UNL     1     126.153 114.869 132.753  0.00  0.00    +0.000 C 
BRANCH  24  25
ATOM     25  S1  UNL     1     126.919 113.566 131.906  0.00  0.00    +0.000 S 
ATOM     26  O2  UNL     1     126.837 112.300 132.758  0.00  0.00    +0.000 OA
ATOM     27  O3  UNL     1     126.148 113.264 130.644  0.00  0.00    +0.000 OA
BRANCH  25  28
ATOM     28  C14 UNL     1     128.582 113.797 131.483  0.00  0.00    +0.000 A 
ATOM     29  C15 UNL     1     128.944 114.052 130.151  0.00  0.00    +0.000 A 
ATOM     30  C16 UNL     1     130.250 114.279 129.781  0.00  0.00    +0.000 A 
ATOM     31  C17 UNL     1     131.269 114.266 130.705  0.00  0.00    +0.000 A 
ATOM     32  C18 UNL     1     130.945 114.019 132.019  0.00  0.00    +0.000 A 
ATOM     33  C19 UNL     1     129.617 113.791 132.377  0.00  0.00    +0.000 A 
ENDBRANCH  25  28
ENDBRANCH  24  25
ENDBRANCH   4  24
TORSDOF 7
ENDMDL
MODEL 7
REMARK VINA RESULT:     -10.8      2.769      5.264
REMARK  Name = aganitha_data/bbio_mols_pdbqt/5.pdb
REMARK  7 active torsions:
REMARK  status: ('A' for Active; 'I' for Inactive)
REMARK    1  A    between atoms: C1_2  and  C10_12
REMARK    2  A    between atoms: N1_3  and  C2_4
REMARK    3  A    between atoms: C7_9  and  C8_10
REMARK    4  A    between atoms: C12_15  and  C13_16
REMARK    5  A    between atoms: C13_16  and  S1_17
REMARK    6  A    between atoms: S1_17  and  C14_18
REMARK    7  A    between atoms: C22_28  and  C23_29
REMARK                            x       y       z     vdW  Elec       q    Type
REMARK                         _______ _______ _______ _____ _____    ______ ____
ROOT
ATOM      1  C10 UNL     1     131.309 118.776 131.930  0.00  0.00    +0.000 A 
ATOM      2  C11 UNL     1     130.347 118.649 132.906  0.00  0.00    +0.000 A 
ATOM      3  F1  UNL     1     129.624 117.522 133.110  0.00  0.00    +0.000 F 
ATOM      4  C12 UNL     1     130.054 119.693 133.805  0.00  0.00    +0.000 A 
ATOM      5  C20 UNL     1     130.789 120.834 133.641  0.00  0.00    +0.000 A 
ATOM      6  C21 UNL     1     131.752 120.972 132.671  0.00  0.00    +0.000 A 
ATOM      7  C22 UNL     1     132.045 119.933 131.774  0.00  0.00    +0.000 A 
ENDROOT
BRANCH   1   9
ATOM      8  O1  UNL     1     131.332 117.922 129.762  0.00  0.00    +0.000 OA
ATOM      9  C1  UNL     1     131.534 117.674 130.969  0.00  0.00    +0.000 C 
ATOM     10  N1  UNL     1     131.951 116.386 131.315  0.00  0.00    +0.000 N 
ATOM     11  H1  UNL     1     132.079 116.147 132.328  0.00  0.00    +0.000 HD
BRANCH  10  12
ATOM     12  C2  UNL     1     132.152 115.346 130.356  0.00  0.00    +0.000 A 
ATOM     13  C3  UNL     1     133.232 115.253 129.519  0.00  0.00    +0.000 A 
ATOM     14  C4  UNL     1     133.263 114.237 128.549  0.00  0.00    +0.000 A 
ATOM     15  C5  UNL     1     132.245 113.346 128.424  0.00  0.00    +0.000 A 
ATOM     16  C6  UNL     1     131.172 113.438 129.256  0.00  0.00    +0.000 A 
ATOM     17  C7  UNL     1     131.100 114.430 130.234  0.00  0.00    +0.000 A 
BRANCH  17  18
ATOM     18  C8  UNL     1     129.946 114.385 131.121  0.00  0.00    +0.000 C 
ATOM     19  C9  UNL     1     129.990 113.975 132.365  0.00  0.00    +0.000 C 
ENDBRANCH  17  18
ENDBRANCH  10  12
ENDBRANCH   1   9
BRANCH   7  20
ATOM     20  C23 UNL     1     133.120 120.146 130.769  0.00  0.00    +0.000 C 
ATOM     21  F2  UNL     1     133.999 119.116 130.657  0.00  0.00    +0.000 F 
ATOM     22  F3  UNL     1     133.832 121.307 131.128  0.00  0.00    +0.000 F 
ATOM     23  F4  UNL     1     132.602 120.484 129.510  0.00  0.00    +0.000 F 
ENDBRANCH   7  20
BRANCH   4  24
ATOM     24  C13 UNL     1     129.033 119.487 134.849  0.00  0.00    +0.000 C 
BRANCH  24  25
ATOM     25  S1  UNL     1     129.579 119.083 136.443  0.00  0.00    +0.000 S 
ATOM     26  O2  UNL     1     131.033 118.617 136.371  0.00  0.00    +0.000 OA
ATOM     27  O3  UNL     1     129.587 120.326 137.302  0.00  0.00    +0.000 OA
BRANCH  25  28
ATOM     28  C14 UNL     1     128.684 117.857 137.274  0.00  0.00    +0.000 A 
ATOM     29  C15 UNL     1     128.318 118.035 138.619  0.00  0.00    +0.000 A 
ATOM     30  C16 UNL     1     127.574 117.101 139.302  0.00  0.00    +0.000 A 
ATOM     31  C17 UNL     1     127.151 115.940 138.696  0.00  0.00    +0.000 A 
ATOM     32  C18 UNL     1     127.493 115.737 137.380  0.00  0.00    +0.000 A 
ATOM     33  C19 UNL     1     128.247 116.694 136.702  0.00  0.00    +0.000 A 
ENDBRANCH  25  28
ENDBRANCH  24  25
ENDBRANCH   4  24
TORSDOF 7
ENDMDL
MODEL 8
REMARK VINA RESULT:     -10.7      2.655      5.218
REMARK  Name = aganitha_data/bbio_mols_pdbqt/5.pdb
REMARK  7 active torsions:
REMARK  status: ('A' for Active; 'I' for Inactive)
REMARK    1  A    between atoms: C1_2  and  C10_12
REMARK    2  A    between atoms: N1_3  and  C2_4
REMARK    3  A    between atoms: C7_9  and  C8_10
REMARK    4  A    between atoms: C12_15  and  C13_16
REMARK    5  A    between atoms: C13_16  and  S1_17
REMARK    6  A    between atoms: S1_17  and  C14_18
REMARK    7  A    between atoms: C22_28  and  C23_29
REMARK                            x       y       z     vdW  Elec       q    Type
REMARK                         _______ _______ _______ _____ _____    ______ ____
ROOT
ATOM      1  C10 UNL     1     130.972 119.171 132.789  0.00  0.00    +0.000 A 
ATOM      2  C11 UNL     1     130.263 119.140 133.968  0.00  0.00    +0.000 A 
ATOM      3  F1  UNL     1     129.513 118.086 134.371  0.00  0.00    +0.000 F 
ATOM      4  C12 UNL     1     130.285 120.215 134.879  0.00  0.00    +0.000 A 
ATOM      5  C20 UNL     1     131.056 121.282 134.511  0.00  0.00    +0.000 A 
ATOM      6  C21 UNL     1     131.769 121.322 133.337  0.00  0.00    +0.000 A 
ATOM      7  C22 UNL     1     131.748 120.253 132.429  0.00  0.00    +0.000 A 
ENDROOT
BRANCH   1   9
ATOM      8  O1  UNL     1     130.728 118.332 130.628  0.00  0.00    +0.000 OA
ATOM      9  C1  UNL     1     130.864 118.045 131.835  0.00  0.00    +0.000 C 
ATOM     10  N1  UNL     1     130.901 116.693 132.189  0.00  0.00    +0.000 N 
ATOM     11  H1  UNL     1     130.966 116.434 133.203  0.00  0.00    +0.000 HD
BRANCH  10  12
ATOM     12  C2  UNL     1     130.788 115.633 131.237  0.00  0.00    +0.000 A 
ATOM     13  C3  UNL     1     131.835 115.095 130.539  0.00  0.00    +0.000 A 
ATOM     14  C4  UNL     1     131.578 114.125 129.556  0.00  0.00    +0.000 A 
ATOM     15  C5  UNL     1     130.314 113.710 129.284  0.00  0.00    +0.000 A 
ATOM     16  C6  UNL     1     129.273 114.244 129.979  0.00  0.00    +0.000 A 
ATOM     17  C7  UNL     1     129.481 115.208 130.964  0.00  0.00    +0.000 A 
BRANCH  17  18
ATOM     18  C8  UNL     1     128.306 115.650 131.700  0.00  0.00    +0.000 C 
ATOM     19  C9  UNL     1     127.166 115.003 131.724  0.00  0.00    +0.000 C 
ENDBRANCH  17  18
ENDBRANCH  10  12
ENDBRANCH   1   9
BRANCH   7  20
ATOM     20  C23 UNL     1     132.567 120.358 131.191  0.00  0.00    +0.000 C 
ATOM     21  F2  UNL     1     133.325 119.263 130.923  0.00  0.00    +0.000 F 
ATOM     22  F3  UNL     1     133.417 121.472 131.322  0.00  0.00    +0.000 F 
ATOM     23  F4  UNL     1     131.789 120.698 130.075  0.00  0.00    +0.000 F 
ENDBRANCH   7  20
BRANCH   4  24
ATOM     24  C13 UNL     1     129.529 120.112 136.140  0.00  0.00    +0.000 C 
BRANCH  24  25
ATOM     25  S1  UNL     1     130.012 118.895 137.275  0.00  0.00    +0.000 S 
ATOM     26  O2  UNL     1     131.221 118.145 136.718  0.00  0.00    +0.000 OA
ATOM     27  O3  UNL     1     130.486 119.554 138.548  0.00  0.00    +0.000 OA
BRANCH  25  28
ATOM     28  C14 UNL     1     128.817 117.713 137.690  0.00  0.00    +0.000 A 
ATOM     29  C15 UNL     1     128.540 116.649 136.816  0.00  0.00    +0.000 A 
ATOM     30  C16 UNL     1     127.624 115.669 137.127  0.00  0.00    +0.000 A 
ATOM     31  C17 UNL     1     126.933 115.687 138.317  0.00  0.00    +0.000 A 
ATOM     32  C18 UNL     1     127.184 116.716 139.193  0.00  0.00    +0.000 A 
ATOM     33  C19 UNL     1     128.114 117.701 138.863  0.00  0.00    +0.000 A 
ENDBRANCH  25  28
ENDBRANCH  24  25
ENDBRANCH   4  24
TORSDOF 7
ENDMDL
MODEL 9
REMARK VINA RESULT:     -10.7      2.624      4.925
REMARK  Name = aganitha_data/bbio_mols_pdbqt/5.pdb
REMARK  7 active torsions:
REMARK  status: ('A' for Active; 'I' for Inactive)
REMARK    1  A    between atoms: C1_2  and  C10_12
REMARK    2  A    between atoms: N1_3  and  C2_4
REMARK    3  A    between atoms: C7_9  and  C8_10
REMARK    4  A    between atoms: C12_15  and  C13_16
REMARK    5  A    between atoms: C13_16  and  S1_17
REMARK    6  A    between atoms: S1_17  and  C14_18
REMARK    7  A    between atoms: C22_28  and  C23_29
REMARK                            x       y       z     vdW  Elec       q    Type
REMARK                         _______ _______ _______ _____ _____    ______ ____
ROOT
ATOM      1  C10 UNL     1     130.951 118.736 132.269  0.00  0.00    +0.000 A 
ATOM      2  C11 UNL     1     130.193 118.715 133.417  0.00  0.00    +0.000 A 
ATOM      3  F1  UNL     1     129.527 117.623 133.862  0.00  0.00    +0.000 F 
ATOM      4  C12 UNL     1     130.069 119.846 134.250  0.00  0.00    +0.000 A 
ATOM      5  C20 UNL     1     130.754 120.955 133.840  0.00  0.00    +0.000 A 
ATOM      6  C21 UNL     1     131.515 120.987 132.696  0.00  0.00    +0.000 A 
ATOM      7  C22 UNL     1     131.639 119.862 131.866  0.00  0.00    +0.000 A 
ENDROOT
BRANCH   1   9
ATOM      8  O1  UNL     1     129.943 117.238 130.795  0.00  0.00    +0.000 OA
ATOM      9  C1  UNL     1     130.995 117.544 131.394  0.00  0.00    +0.000 C 
ATOM     10  N1  UNL     1     132.123 116.743 131.193  0.00  0.00    +0.000 N 
ATOM     11  H1  UNL     1     133.001 116.958 131.724  0.00  0.00    +0.000 HD
BRANCH  10  12
ATOM     12  C2  UNL     1     132.124 115.595 130.342  0.00  0.00    +0.000 A 
ATOM     13  C3  UNL     1     131.204 114.583 130.393  0.00  0.00    +0.000 A 
ATOM     14  C4  UNL     1     131.374 113.458 129.570  0.00  0.00    +0.000 A 
ATOM     15  C5  UNL     1     132.431 113.354 128.722  0.00  0.00    +0.000 A 
ATOM     16  C6  UNL     1     133.345 114.361 128.670  0.00  0.00    +0.000 A 
ATOM     17  C7  UNL     1     133.215 115.496 129.469  0.00  0.00    +0.000 A 
BRANCH  17  18
ATOM     18  C8  UNL     1     134.204 116.546 129.273  0.00  0.00    +0.000 C 
ATOM     19  C9  UNL     1     135.493 116.384 129.449  0.00  0.00    +0.000 C 
ENDBRANCH  17  18
ENDBRANCH  10  12
ENDBRANCH   1   9
BRANCH   7  20
ATOM     20  C23 UNL     1     132.503 119.964 130.659  0.00  0.00    +0.000 C 
ATOM     21  F2  UNL     1     133.712 119.357 130.780  0.00  0.00    +0.000 F 
ATOM     22  F3  UNL     1     132.711 121.329 130.383  0.00  0.00    +0.000 F 
ATOM     23  F4  UNL     1     131.845 119.517 129.504  0.00  0.00    +0.000 F 
ENDBRANCH   7  20
BRANCH   4  24
ATOM     24  C13 UNL     1     129.267 119.754 135.483  0.00  0.00    +0.000 C 
BRANCH  24  25
ATOM     25  S1  UNL     1     129.944 118.894 136.826  0.00  0.00    +0.000 S 
ATOM     26  O2  UNL     1     131.241 118.217 136.383  0.00  0.00    +0.000 OA
ATOM     27  O3  UNL     1     130.339 119.876 137.904  0.00  0.00    +0.000 OA
BRANCH  25  28
ATOM     28  C14 UNL     1     128.944 117.676 137.542  0.00  0.00    +0.000 A 
ATOM     29  C15 UNL     1     128.296 117.921 138.764  0.00  0.00    +0.000 A 
ATOM     30  C16 UNL     1     127.462 116.993 139.346  0.00  0.00    +0.000 A 
ATOM     31  C17 UNL     1     127.225 115.773 138.754  0.00  0.00    +0.000 A 
ATOM     32  C18 UNL     1     127.846 115.505 137.557  0.00  0.00    +0.000 A 
ATOM     33  C19 UNL     1     128.687 116.456 136.981  0.00  0.00    +0.000 A 
ENDBRANCH  25  28
ENDBRANCH  24  25
ENDBRANCH   4  24
TORSDOF 7
ENDMDL
