MODEL 1
REMARK VINA RESULT:     -13.4      0.000      0.000
REMARK  Name = aganitha_data/bbio_mols_pdbqt/6.pdb
REMARK  7 active torsions:
REMARK  status: ('A' for Active; 'I' for Inactive)
REMARK    1  A    between atoms: C1_2  and  C14_16
REMARK    2  A    between atoms: N1_3  and  C2_4
REMARK    3  A    between atoms: C6_8  and  C7_9
REMARK    4  A    between atoms: C16_19  and  C17_20
REMARK    5  A    between atoms: C17_20  and  S1_21
REMARK    6  A    between atoms: S1_21  and  C18_22
REMARK    7  A    between atoms: C26_32  and  C27_33
REMARK                            x       y       z     vdW  Elec       q    Type
REMARK                         _______ _______ _______ _____ _____    ______ ____
ROOT
ATOM      1  C14 UNL     1     130.867 119.355 132.900  0.00  0.00    +0.000 A 
ATOM      2  C15 UNL     1     130.241 119.354 134.155  0.00  0.00    +0.000 A 
ATOM      3  F1  UNL     1     129.424 118.305 134.472  0.00  0.00    +0.000 F 
ATOM      4  C16 UNL     1     130.390 120.348 135.099  0.00  0.00    +0.000 A 
ATOM      5  C24 UNL     1     131.215 121.386 134.746  0.00  0.00    +0.000 A 
ATOM      6  C25 UNL     1     131.839 121.406 133.521  0.00  0.00    +0.000 A 
ATOM      7  C26 UNL     1     131.685 120.390 132.556  0.00  0.00    +0.000 A 
ENDROOT
BRANCH   1   9
ATOM      8  O1  UNL     1     130.687 118.480 130.794  0.00  0.00    +0.000 OA
ATOM      9  C1  UNL     1     130.677 118.165 132.060  0.00  0.00    +0.000 C 
ATOM     10  N1  UNL     1     130.508 116.850 132.427  0.00  0.00    +0.000 N 
ATOM     11  H1  UNL     1     130.555 116.602 133.447  0.00  0.00    +0.000 HD
BRANCH  10  12
ATOM     12  C2  UNL     1     130.309 115.794 131.478  0.00  0.00    +0.000 A 
ATOM     13  C3  UNL     1     129.112 115.334 131.055  0.00  0.00    +0.000 A 
ATOM     14  C4  UNL     1     129.036 114.327 130.118  0.00  0.00    +0.000 A 
ATOM     15  C5  UNL     1     130.140 113.738 129.567  0.00  0.00    +0.000 A 
ATOM     16  C6  UNL     1     131.366 114.199 129.992  0.00  0.00    +0.000 A 
ATOM     17  C13 UNL     1     131.458 115.198 130.922  0.00  0.00    +0.000 A 
BRANCH  16  18
ATOM     18  C7  UNL     1     132.596 113.616 129.447  0.00  0.00    +0.000 A 
ATOM     19  C8  UNL     1     132.760 113.536 128.085  0.00  0.00    +0.000 A 
ATOM     20  C9  UNL     1     133.922 112.985 127.592  0.00  0.00    +0.000 A 
ATOM     21  C10 UNL     1     134.926 112.511 128.436  0.00  0.00    +0.000 A 
ATOM     22  C11 UNL     1     134.754 112.594 129.798  0.00  0.00    +0.000 A 
ATOM     23  C12 UNL     1     133.589 113.146 130.273  0.00  0.00    +0.000 A 
ENDBRANCH  16  18
ENDBRANCH  10  12
ENDBRANCH   1   9
BRANCH   7  24
ATOM     24  C27 UNL     1     132.392 120.555 131.271  0.00  0.00    +0.000 C 
ATOM     25  F2  UNL     1     133.293 119.560 130.994  0.00  0.00    +0.000 F 
ATOM     26  F3  UNL     1     133.290 121.688 131.434  0.00  0.00    +0.000 F 
ATOM     27  F4  UNL     1     131.621 120.870 130.220  0.00  0.00    +0.000 F 
ENDBRANCH   7  24
BRANCH   4  28
ATOM     28  C17 UNL     1     129.641 120.236 136.368  0.00  0.00    +0.000 C 
BRANCH  28  29
ATOM     29  S1  UNL     1     129.988 118.899 137.400  0.00  0.00    +0.000 S 
ATOM     30  O2  UNL     1     130.509 119.460 138.721  0.00  0.00    +0.000 OA
ATOM     31  O3  UNL     1     131.107 118.020 136.896  0.00  0.00    +0.000 OA
BRANCH  29  32
ATOM     32  C18 UNL     1     128.594 117.933 137.812  0.00  0.00    +0.000 A 
ATOM     33  C19 UNL     1     128.448 117.297 139.001  0.00  0.00    +0.000 A 
ATOM     34  C20 UNL     1     127.312 116.535 139.258  0.00  0.00    +0.000 A 
ATOM     35  C21 UNL     1     126.323 116.417 138.311  0.00  0.00    +0.000 A 
ATOM     36  C22 UNL     1     126.494 117.070 137.119  0.00  0.00    +0.000 A 
ATOM     37  C23 UNL     1     127.605 117.828 136.839  0.00  0.00    +0.000 A 
ENDBRANCH  29  32
ENDBRANCH  28  29
ENDBRANCH   4  28
TORSDOF 7
ENDMDL
MODEL 2
REMARK VINA RESULT:     -13.3      0.724      1.173
REMARK  Name = aganitha_data/bbio_mols_pdbqt/6.pdb
REMARK  7 active torsions:
REMARK  status: ('A' for Active; 'I' for Inactive)
REMARK    1  A    between atoms: C1_2  and  C14_16
REMARK    2  A    between atoms: N1_3  and  C2_4
REMARK    3  A    between atoms: C6_8  and  C7_9
REMARK    4  A    between atoms: C16_19  and  C17_20
REMARK    5  A    between atoms: C17_20  and  S1_21
REMARK    6  A    between atoms: S1_21  and  C18_22
REMARK    7  A    between atoms: C26_32  and  C27_33
REMARK                            x       y       z     vdW  Elec       q    Type
REMARK                         _______ _______ _______ _____ _____    ______ ____
ROOT
ATOM      1  C14 UNL     1     130.943 119.432 132.870  0.00  0.00    +0.000 A 
ATOM      2  C15 UNL     1     130.351 119.433 134.143  0.00  0.00    +0.000 A 
ATOM      3  F1  UNL     1     129.709 118.301 134.561  0.00  0.00    +0.000 F 
ATOM      4  C16 UNL     1     130.369 120.507 135.008  0.00  0.00    +0.000 A 
ATOM      5  C24 UNL     1     131.020 121.626 134.553  0.00  0.00    +0.000 A 
ATOM      6  C25 UNL     1     131.606 121.646 133.311  0.00  0.00    +0.000 A 
ATOM      7  C26 UNL     1     131.587 120.548 132.427  0.00  0.00    +0.000 A 
ENDROOT
BRANCH   1   9
ATOM      8  O1  UNL     1     132.093 117.889 131.635  0.00  0.00    +0.000 OA
ATOM      9  C1  UNL     1     130.916 118.166 132.125  0.00  0.00    +0.000 C 
ATOM     10  N1  UNL     1     129.872 117.299 131.905  0.00  0.00    +0.000 N 
ATOM     11  H1  UNL     1     128.943 117.508 132.349  0.00  0.00    +0.000 HD
BRANCH  10  12
ATOM     12  C2  UNL     1     130.002 116.102 131.128  0.00  0.00    +0.000 A 
ATOM     13  C3  UNL     1     128.979 115.382 130.618  0.00  0.00    +0.000 A 
ATOM     14  C4  UNL     1     129.219 114.255 129.863  0.00  0.00    +0.000 A 
ATOM     15  C5  UNL     1     130.478 113.800 129.585  0.00  0.00    +0.000 A 
ATOM     16  C6  UNL     1     131.528 114.525 130.101  0.00  0.00    +0.000 A 
ATOM     17  C13 UNL     1     131.306 115.646 130.853  0.00  0.00    +0.000 A 
BRANCH  16  18
ATOM     18  C7  UNL     1     132.907 114.099 129.847  0.00  0.00    +0.000 A 
ATOM     19  C8  UNL     1     133.209 112.758 129.833  0.00  0.00    +0.000 A 
ATOM     20  C9  UNL     1     134.511 112.377 129.593  0.00  0.00    +0.000 A 
ATOM     21  C10 UNL     1     135.520 113.312 129.365  0.00  0.00    +0.000 A 
ATOM     22  C11 UNL     1     135.210 114.653 129.380  0.00  0.00    +0.000 A 
ATOM     23  C12 UNL     1     133.906 115.015 129.621  0.00  0.00    +0.000 A 
ENDBRANCH  16  18
ENDBRANCH  10  12
ENDBRANCH   1   9
BRANCH   7  24
ATOM     24  C27 UNL     1     132.233 120.719 131.110  0.00  0.00    +0.000 C 
ATOM     25  F2  UNL     1     133.508 120.221 131.042  0.00  0.00    +0.000 F 
ATOM     26  F3  UNL     1     132.495 122.141 130.958  0.00  0.00    +0.000 F 
ATOM     27  F4  UNL     1     131.484 120.386 130.049  0.00  0.00    +0.000 F 
ENDBRANCH   7  24
BRANCH   4  28
ATOM     28  C17 UNL     1     129.673 120.381 136.305  0.00  0.00    +0.000 C 
BRANCH  28  29
ATOM     29  S1  UNL     1     130.036 119.013 137.291  0.00  0.00    +0.000 S 
ATOM     30  O2  UNL     1     130.562 119.536 138.627  0.00  0.00    +0.000 OA
ATOM     31  O3  UNL     1     131.158 118.160 136.752  0.00  0.00    +0.000 OA
BRANCH  29  32
ATOM     32  C18 UNL     1     128.651 118.026 137.681  0.00  0.00    +0.000 A 
ATOM     33  C19 UNL     1     127.714 117.658 136.772  0.00  0.00    +0.000 A 
ATOM     34  C20 UNL     1     126.628 116.876 137.156  0.00  0.00    +0.000 A 
ATOM     35  C21 UNL     1     126.492 116.465 138.460  0.00  0.00    +0.000 A 
ATOM     36  C22 UNL     1     127.453 116.849 139.358  0.00  0.00    +0.000 A 
ATOM     37  C23 UNL     1     128.533 117.621 139.007  0.00  0.00    +0.000 A 
ENDBRANCH  29  32
ENDBRANCH  28  29
ENDBRANCH   4  28
TORSDOF 7
ENDMDL
MODEL 3
REMARK VINA RESULT:     -13.1      2.542      4.647
REMARK  Name = aganitha_data/bbio_mols_pdbqt/6.pdb
REMARK  7 active torsions:
REMARK  status: ('A' for Active; 'I' for Inactive)
REMARK    1  A    between atoms: C1_2  and  C14_16
REMARK    2  A    between atoms: N1_3  and  C2_4
REMARK    3  A    between atoms: C6_8  and  C7_9
REMARK    4  A    between atoms: C16_19  and  C17_20
REMARK    5  A    between atoms: C17_20  and  S1_21
REMARK    6  A    between atoms: S1_21  and  C18_22
REMARK    7  A    between atoms: C26_32  and  C27_33
REMARK                            x       y       z     vdW  Elec       q    Type
REMARK                         _______ _______ _______ _____ _____    ______ ____
ROOT
ATOM      1  C14 UNL     1     128.793 116.250 133.944  0.00  0.00    +0.000 A 
ATOM      2  C15 UNL     1     129.196 116.542 135.257  0.00  0.00    +0.000 A 
ATOM      3  F1  UNL     1     130.493 116.916 135.470  0.00  0.00    +0.000 F 
ATOM      4  C16 UNL     1     128.368 116.473 136.357  0.00  0.00    +0.000 A 
ATOM      5  C24 UNL     1     127.075 116.092 136.106  0.00  0.00    +0.000 A 
ATOM      6  C25 UNL     1     126.659 115.802 134.828  0.00  0.00    +0.000 A 
ATOM      7  C26 UNL     1     127.506 115.872 133.703  0.00  0.00    +0.000 A 
ENDROOT
BRANCH   1   9
ATOM      8  O1  UNL     1     130.427 115.377 132.603  0.00  0.00    +0.000 OA
ATOM      9  C1  UNL     1     129.780 116.476 132.880  0.00  0.00    +0.000 C 
ATOM     10  N1  UNL     1     130.076 117.626 132.187  0.00  0.00    +0.000 N 
ATOM     11  H1  UNL     1     129.512 118.491 132.383  0.00  0.00    +0.000 HD
BRANCH  10  12
ATOM     12  C2  UNL     1     131.094 117.691 131.181  0.00  0.00    +0.000 A 
ATOM     13  C3  UNL     1     131.521 118.816 130.567  0.00  0.00    +0.000 A 
ATOM     14  C4  UNL     1     132.527 118.768 129.627  0.00  0.00    +0.000 A 
ATOM     15  C5  UNL     1     133.146 117.605 129.259  0.00  0.00    +0.000 A 
ATOM     16  C6  UNL     1     132.719 116.452 129.878  0.00  0.00    +0.000 A 
ATOM     17  C13 UNL     1     131.721 116.484 130.814  0.00  0.00    +0.000 A 
BRANCH  16  18
ATOM     18  C7  UNL     1     133.335 115.167 129.537  0.00  0.00    +0.000 A 
ATOM     19  C8  UNL     1     134.702 115.036 129.591  0.00  0.00    +0.000 A 
ATOM     20  C9  UNL     1     135.262 113.821 129.266  0.00  0.00    +0.000 A 
ATOM     21  C10 UNL     1     134.481 112.730 128.886  0.00  0.00    +0.000 A 
ATOM     22  C11 UNL     1     133.113 112.868 128.833  0.00  0.00    +0.000 A 
ATOM     23  C12 UNL     1     132.571 114.087 129.161  0.00  0.00    +0.000 A 
ENDBRANCH  16  18
ENDBRANCH  10  12
ENDBRANCH   1   9
BRANCH   7  24
ATOM     24  C27 UNL     1     126.934 115.505 132.393  0.00  0.00    +0.000 C 
ATOM     25  F2  UNL     1     125.650 115.031 132.455  0.00  0.00    +0.000 F 
ATOM     26  F3  UNL     1     127.638 114.311 131.953  0.00  0.00    +0.000 F 
ATOM     27  F4  UNL     1     127.115 116.399 131.410  0.00  0.00    +0.000 F 
ENDBRANCH   7  24
BRANCH   4  28
ATOM     28  C17 UNL     1     128.936 116.773 137.688  0.00  0.00    +0.000 C 
BRANCH  28  29
ATOM     29  S1  UNL     1     129.091 118.428 138.150  0.00  0.00    +0.000 S 
ATOM     30  O2  UNL     1     130.365 118.555 138.983  0.00  0.00    +0.000 OA
ATOM     31  O3  UNL     1     127.991 118.905 139.067  0.00  0.00    +0.000 OA
BRANCH  29  32
ATOM     32  C18 UNL     1     129.287 119.528 136.811  0.00  0.00    +0.000 A 
ATOM     33  C19 UNL     1     128.251 120.141 136.186  0.00  0.00    +0.000 A 
ATOM     34  C20 UNL     1     128.481 121.001 135.116  0.00  0.00    +0.000 A 
ATOM     35  C21 UNL     1     129.761 121.240 134.677  0.00  0.00    +0.000 A 
ATOM     36  C22 UNL     1     130.790 120.609 135.326  0.00  0.00    +0.000 A 
ATOM     37  C23 UNL     1     130.592 119.756 136.383  0.00  0.00    +0.000 A 
ENDBRANCH  29  32
ENDBRANCH  28  29
ENDBRANCH   4  28
TORSDOF 7
ENDMDL
MODEL 4
REMARK VINA RESULT:     -13.1      2.531      4.633
REMARK  Name = aganitha_data/bbio_mols_pdbqt/6.pdb
REMARK  7 active torsions:
REMARK  status: ('A' for Active; 'I' for Inactive)
REMARK    1  A    between atoms: C1_2  and  C14_16
REMARK    2  A    between atoms: N1_3  and  C2_4
REMARK    3  A    between atoms: C6_8  and  C7_9
REMARK    4  A    between atoms: C16_19  and  C17_20
REMARK    5  A    between atoms: C17_20  and  S1_21
REMARK    6  A    between atoms: S1_21  and  C18_22
REMARK    7  A    between atoms: C26_32  and  C27_33
REMARK                            x       y       z     vdW  Elec       q    Type
REMARK                         _______ _______ _______ _____ _____    ______ ____
ROOT
ATOM      1  C14 UNL     1     128.812 116.292 133.953  0.00  0.00    +0.000 A 
ATOM      2  C15 UNL     1     129.216 116.595 135.262  0.00  0.00    +0.000 A 
ATOM      3  F1  UNL     1     130.514 116.969 135.471  0.00  0.00    +0.000 F 
ATOM      4  C16 UNL     1     128.389 116.538 136.364  0.00  0.00    +0.000 A 
ATOM      5  C24 UNL     1     127.095 116.156 136.118  0.00  0.00    +0.000 A 
ATOM      6  C25 UNL     1     126.678 115.855 134.843  0.00  0.00    +0.000 A 
ATOM      7  C26 UNL     1     127.524 115.913 133.717  0.00  0.00    +0.000 A 
ENDROOT
BRANCH   1   9
ATOM      8  O1  UNL     1     130.430 115.400 132.606  0.00  0.00    +0.000 OA
ATOM      9  C1  UNL     1     129.798 116.506 132.886  0.00  0.00    +0.000 C 
ATOM     10  N1  UNL     1     130.106 117.653 132.192  0.00  0.00    +0.000 N 
ATOM     11  H1  UNL     1     129.552 118.525 132.391  0.00  0.00    +0.000 HD
BRANCH  10  12
ATOM     12  C2  UNL     1     131.121 117.707 131.183  0.00  0.00    +0.000 A 
ATOM     13  C3  UNL     1     131.553 118.826 130.562  0.00  0.00    +0.000 A 
ATOM     14  C4  UNL     1     132.555 118.766 129.619  0.00  0.00    +0.000 A 
ATOM     15  C5  UNL     1     133.167 117.598 129.257  0.00  0.00    +0.000 A 
ATOM     16  C6  UNL     1     132.735 116.450 129.883  0.00  0.00    +0.000 A 
ATOM     17  C13 UNL     1     131.740 116.494 130.821  0.00  0.00    +0.000 A 
BRANCH  16  18
ATOM     18  C7  UNL     1     133.342 115.160 129.547  0.00  0.00    +0.000 A 
ATOM     19  C8  UNL     1     132.535 114.097 129.217  0.00  0.00    +0.000 A 
ATOM     20  C9  UNL     1     133.126 112.892 128.905  0.00  0.00    +0.000 A 
ATOM     21  C10 UNL     1     134.510 112.728 128.916  0.00  0.00    +0.000 A 
ATOM     22  C11 UNL     1     135.312 113.796 129.248  0.00  0.00    +0.000 A 
ATOM     23  C12 UNL     1     134.707 114.991 129.556  0.00  0.00    +0.000 A 
ENDBRANCH  16  18
ENDBRANCH  10  12
ENDBRANCH   1   9
BRANCH   7  24
ATOM     24  C27 UNL     1     126.950 115.535 132.411  0.00  0.00    +0.000 C 
ATOM     25  F2  UNL     1     126.977 116.536 131.475  0.00  0.00    +0.000 F 
ATOM     26  F3  UNL     1     125.516 115.398 132.612  0.00  0.00    +0.000 F 
ATOM     27  F4  UNL     1     127.348 114.351 131.922  0.00  0.00    +0.000 F 
ENDBRANCH   7  24
BRANCH   4  28
ATOM     28  C17 UNL     1     128.958 116.850 137.692  0.00  0.00    +0.000 C 
BRANCH  28  29
ATOM     29  S1  UNL     1     129.099 118.508 138.145  0.00  0.00    +0.000 S 
ATOM     30  O2  UNL     1     130.361 118.647 138.994  0.00  0.00    +0.000 OA
ATOM     31  O3  UNL     1     127.985 118.985 139.044  0.00  0.00    +0.000 OA
BRANCH  29  32
ATOM     32  C18 UNL     1     129.309 119.601 136.802  0.00  0.00    +0.000 A 
ATOM     33  C19 UNL     1     128.278 120.203 136.158  0.00  0.00    +0.000 A 
ATOM     34  C20 UNL     1     128.519 121.057 135.085  0.00  0.00    +0.000 A 
ATOM     35  C21 UNL     1     129.804 121.302 134.664  0.00  0.00    +0.000 A 
ATOM     36  C22 UNL     1     130.827 120.682 135.332  0.00  0.00    +0.000 A 
ATOM     37  C23 UNL     1     130.618 119.834 136.392  0.00  0.00    +0.000 A 
ENDBRANCH  29  32
ENDBRANCH  28  29
ENDBRANCH   4  28
TORSDOF 7
ENDMDL
MODEL 5
REMARK VINA RESULT:     -13.1      2.539      4.589
REMARK  Name = aganitha_data/bbio_mols_pdbqt/6.pdb
REMARK  7 active torsions:
REMARK  status: ('A' for Active; 'I' for Inactive)
REMARK    1  A    between atoms: C1_2  and  C14_16
REMARK    2  A    between atoms: N1_3  and  C2_4
REMARK    3  A    between atoms: C6_8  and  C7_9
REMARK    4  A    between atoms: C16_19  and  C17_20
REMARK    5  A    between atoms: C17_20  and  S1_21
REMARK    6  A    between atoms: S1_21  and  C18_22
REMARK    7  A    between atoms: C26_32  and  C27_33
REMARK                            x       y       z     vdW  Elec       q    Type
REMARK                         _______ _______ _______ _____ _____    ______ ____
ROOT
ATOM      1  C14 UNL     1     128.787 116.254 133.923  0.00  0.00    +0.000 A 
ATOM      2  C15 UNL     1     129.189 116.541 135.237  0.00  0.00    +0.000 A 
ATOM      3  F1  UNL     1     130.487 116.909 135.452  0.00  0.00    +0.000 F 
ATOM      4  C16 UNL     1     128.359 116.473 136.336  0.00  0.00    +0.000 A 
ATOM      5  C24 UNL     1     127.064 116.097 136.082  0.00  0.00    +0.000 A 
ATOM      6  C25 UNL     1     126.650 115.812 134.803  0.00  0.00    +0.000 A 
ATOM      7  C26 UNL     1     127.498 115.882 133.679  0.00  0.00    +0.000 A 
ENDROOT
BRANCH   1   9
ATOM      8  O1  UNL     1     130.418 115.378 132.580  0.00  0.00    +0.000 OA
ATOM      9  C1  UNL     1     129.776 116.479 132.861  0.00  0.00    +0.000 C 
ATOM     10  N1  UNL     1     130.078 117.630 132.172  0.00  0.00    +0.000 N 
ATOM     11  H1  UNL     1     129.517 118.497 132.370  0.00  0.00    +0.000 HD
BRANCH  10  12
ATOM     12  C2  UNL     1     131.097 117.694 131.167  0.00  0.00    +0.000 A 
ATOM     13  C3  UNL     1     131.518 118.817 130.545  0.00  0.00    +0.000 A 
ATOM     14  C4  UNL     1     132.525 118.767 129.607  0.00  0.00    +0.000 A 
ATOM     15  C5  UNL     1     133.154 117.606 129.250  0.00  0.00    +0.000 A 
ATOM     16  C6  UNL     1     132.733 116.455 129.877  0.00  0.00    +0.000 A 
ATOM     17  C13 UNL     1     131.733 116.488 130.811  0.00  0.00    +0.000 A 
BRANCH  16  18
ATOM     18  C7  UNL     1     133.358 115.171 129.548  0.00  0.00    +0.000 A 
ATOM     19  C8  UNL     1     132.569 114.110 129.174  0.00  0.00    +0.000 A 
ATOM     20  C9  UNL     1     133.176 112.912 128.869  0.00  0.00    +0.000 A 
ATOM     21  C10 UNL     1     134.560 112.753 128.929  0.00  0.00    +0.000 A 
ATOM     22  C11 UNL     1     135.344 113.820 129.304  0.00  0.00    +0.000 A 
ATOM     23  C12 UNL     1     134.722 115.008 129.606  0.00  0.00    +0.000 A 
ENDBRANCH  16  18
ENDBRANCH  10  12
ENDBRANCH   1   9
BRANCH   7  24
ATOM     24  C27 UNL     1     126.927 115.520 132.368  0.00  0.00    +0.000 C 
ATOM     25  F2  UNL     1     125.641 115.049 132.426  0.00  0.00    +0.000 F 
ATOM     26  F3  UNL     1     127.628 114.326 131.924  0.00  0.00    +0.000 F 
ATOM     27  F4  UNL     1     127.111 116.417 131.387  0.00  0.00    +0.000 F 
ENDBRANCH   7  24
BRANCH   4  28
ATOM     28  C17 UNL     1     128.926 116.767 137.668  0.00  0.00    +0.000 C 
BRANCH  28  29
ATOM     29  S1  UNL     1     129.085 118.420 138.136  0.00  0.00    +0.000 S 
ATOM     30  O2  UNL     1     130.307 118.525 139.045  0.00  0.00    +0.000 OA
ATOM     31  O3  UNL     1     127.941 118.922 138.981  0.00  0.00    +0.000 OA
BRANCH  29  32
ATOM     32  C18 UNL     1     129.386 119.511 136.808  0.00  0.00    +0.000 A 
ATOM     33  C19 UNL     1     130.620 119.746 136.297  0.00  0.00    +0.000 A 
ATOM     34  C20 UNL     1     130.788 120.639 135.242  0.00  0.00    +0.000 A 
ATOM     35  C21 UNL     1     129.706 121.294 134.704  0.00  0.00    +0.000 A 
ATOM     36  C22 UNL     1     128.471 121.038 135.239  0.00  0.00    +0.000 A 
ATOM     37  C23 UNL     1     128.277 120.164 136.279  0.00  0.00    +0.000 A 
ENDBRANCH  29  32
ENDBRANCH  28  29
ENDBRANCH   4  28
TORSDOF 7
ENDMDL
MODEL 6
REMARK VINA RESULT:     -13.0      0.946      1.407
REMARK  Name = aganitha_data/bbio_mols_pdbqt/6.pdb
REMARK  7 active torsions:
REMARK  status: ('A' for Active; 'I' for Inactive)
REMARK    1  A    between atoms: C1_2  and  C14_16
REMARK    2  A    between atoms: N1_3  and  C2_4
REMARK    3  A    between atoms: C6_8  and  C7_9
REMARK    4  A    between atoms: C16_19  and  C17_20
REMARK    5  A    between atoms: C17_20  and  S1_21
REMARK    6  A    between atoms: S1_21  and  C18_22
REMARK    7  A    between atoms: C26_32  and  C27_33
REMARK                            x       y       z     vdW  Elec       q    Type
REMARK                         _______ _______ _______ _____ _____    ______ ____
ROOT
ATOM      1  C14 UNL     1     130.792 119.397 132.578  0.00  0.00    +0.000 A 
ATOM      2  C15 UNL     1     129.933 119.538 133.678  0.00  0.00    +0.000 A 
ATOM      3  F1  UNL     1     128.979 118.581 133.883  0.00  0.00    +0.000 F 
ATOM      4  C16 UNL     1     129.981 120.585 134.573  0.00  0.00    +0.000 A 
ATOM      5  C24 UNL     1     130.949 121.528 134.334  0.00  0.00    +0.000 A 
ATOM      6  C25 UNL     1     131.801 121.409 133.262  0.00  0.00    +0.000 A 
ATOM      7  C26 UNL     1     131.751 120.338 132.347  0.00  0.00    +0.000 A 
ENDROOT
BRANCH   1   9
ATOM      8  O1  UNL     1     130.727 118.421 130.510  0.00  0.00    +0.000 OA
ATOM      9  C1  UNL     1     130.666 118.165 131.788  0.00  0.00    +0.000 C 
ATOM     10  N1  UNL     1     130.508 116.865 132.209  0.00  0.00    +0.000 N 
ATOM     11  H1  UNL     1     130.513 116.666 133.241  0.00  0.00    +0.000 HD
BRANCH  10  12
ATOM     12  C2  UNL     1     130.375 115.762 131.304  0.00  0.00    +0.000 A 
ATOM     13  C3  UNL     1     129.210 115.192 130.926  0.00  0.00    +0.000 A 
ATOM     14  C4  UNL     1     129.196 114.147 130.029  0.00  0.00    +0.000 A 
ATOM     15  C5  UNL     1     130.332 113.629 129.471  0.00  0.00    +0.000 A 
ATOM     16  C6  UNL     1     131.526 114.202 129.850  0.00  0.00    +0.000 A 
ATOM     17  C13 UNL     1     131.556 115.240 130.740  0.00  0.00    +0.000 A 
BRANCH  16  18
ATOM     18  C7  UNL     1     132.786 113.701 129.295  0.00  0.00    +0.000 A 
ATOM     19  C8  UNL     1     133.933 113.770 130.050  0.00  0.00    +0.000 A 
ATOM     20  C9  UNL     1     135.107 113.294 129.511  0.00  0.00    +0.000 A 
ATOM     21  C10 UNL     1     135.160 112.749 128.229  0.00  0.00    +0.000 A 
ATOM     22  C11 UNL     1     134.008 112.683 127.479  0.00  0.00    +0.000 A 
ATOM     23  C12 UNL     1     132.845 113.162 128.032  0.00  0.00    +0.000 A 
ENDBRANCH  16  18
ENDBRANCH  10  12
ENDBRANCH   1   9
BRANCH   7  24
ATOM     24  C27 UNL     1     132.709 120.352 131.225  0.00  0.00    +0.000 C 
ATOM     25  F2  UNL     1     133.484 119.225 131.135  0.00  0.00    +0.000 F 
ATOM     26  F3  UNL     1     133.721 121.344 131.556  0.00  0.00    +0.000 F 
ATOM     27  F4  UNL     1     132.212 120.742 130.042  0.00  0.00    +0.000 F 
ENDBRANCH   7  24
BRANCH   4  28
ATOM     28  C17 UNL     1     128.989 120.626 135.668  0.00  0.00    +0.000 C 
BRANCH  28  29
ATOM     29  S1  UNL     1     129.243 119.601 137.031  0.00  0.00    +0.000 S 
ATOM     30  O2  UNL     1     128.443 120.179 138.196  0.00  0.00    +0.000 OA
ATOM     31  O3  UNL     1     130.670 119.589 137.522  0.00  0.00    +0.000 OA
BRANCH  29  32
ATOM     32  C18 UNL     1     128.659 117.971 136.817  0.00  0.00    +0.000 A 
ATOM     33  C19 UNL     1     127.346 117.632 136.869  0.00  0.00    +0.000 A 
ATOM     34  C20 UNL     1     126.952 116.308 136.699  0.00  0.00    +0.000 A 
ATOM     35  C21 UNL     1     127.887 115.326 136.476  0.00  0.00    +0.000 A 
ATOM     36  C22 UNL     1     129.206 115.694 136.428  0.00  0.00    +0.000 A 
ATOM     37  C23 UNL     1     129.623 116.992 136.593  0.00  0.00    +0.000 A 
ENDBRANCH  29  32
ENDBRANCH  28  29
ENDBRANCH   4  28
TORSDOF 7
ENDMDL
MODEL 7
REMARK VINA RESULT:     -13.0      0.755      1.049
REMARK  Name = aganitha_data/bbio_mols_pdbqt/6.pdb
REMARK  7 active torsions:
REMARK  status: ('A' for Active; 'I' for Inactive)
REMARK    1  A    between atoms: C1_2  and  C14_16
REMARK    2  A    between atoms: N1_3  and  C2_4
REMARK    3  A    between atoms: C6_8  and  C7_9
REMARK    4  A    between atoms: C16_19  and  C17_20
REMARK    5  A    between atoms: C17_20  and  S1_21
REMARK    6  A    between atoms: S1_21  and  C18_22
REMARK    7  A    between atoms: C26_32  and  C27_33
REMARK                            x       y       z     vdW  Elec       q    Type
REMARK                         _______ _______ _______ _____ _____    ______ ____
ROOT
ATOM      1  C14 UNL     1     130.898 119.397 132.917  0.00  0.00    +0.000 A 
ATOM      2  C15 UNL     1     130.304 119.396 134.188  0.00  0.00    +0.000 A 
ATOM      3  F1  UNL     1     129.657 118.266 134.602  0.00  0.00    +0.000 F 
ATOM      4  C16 UNL     1     130.325 120.467 135.056  0.00  0.00    +0.000 A 
ATOM      5  C24 UNL     1     130.981 121.586 134.606  0.00  0.00    +0.000 A 
ATOM      6  C25 UNL     1     131.570 121.607 133.364  0.00  0.00    +0.000 A 
ATOM      7  C26 UNL     1     131.548 120.512 132.477  0.00  0.00    +0.000 A 
ENDROOT
BRANCH   1   9
ATOM      8  O1  UNL     1     132.048 117.845 131.691  0.00  0.00    +0.000 OA
ATOM      9  C1  UNL     1     130.868 118.133 132.168  0.00  0.00    +0.000 C 
ATOM     10  N1  UNL     1     129.818 117.277 131.933  0.00  0.00    +0.000 N 
ATOM     11  H1  UNL     1     128.885 117.494 132.367  0.00  0.00    +0.000 HD
BRANCH  10  12
ATOM     12  C2  UNL     1     129.945 116.081 131.155  0.00  0.00    +0.000 A 
ATOM     13  C3  UNL     1     128.922 115.378 130.622  0.00  0.00    +0.000 A 
ATOM     14  C4  UNL     1     129.159 114.250 129.868  0.00  0.00    +0.000 A 
ATOM     15  C5  UNL     1     130.417 113.776 129.613  0.00  0.00    +0.000 A 
ATOM     16  C6  UNL     1     131.468 114.484 130.152  0.00  0.00    +0.000 A 
ATOM     17  C13 UNL     1     131.248 115.606 130.903  0.00  0.00    +0.000 A 
BRANCH  16  18
ATOM     18  C7  UNL     1     132.845 114.038 129.923  0.00  0.00    +0.000 A 
ATOM     19  C8  UNL     1     133.797 114.951 129.537  0.00  0.00    +0.000 A 
ATOM     20  C9  UNL     1     135.085 114.512 129.326  0.00  0.00    +0.000 A 
ATOM     21  C10 UNL     1     135.442 113.175 129.493  0.00  0.00    +0.000 A 
ATOM     22  C11 UNL     1     134.483 112.266 129.879  0.00  0.00    +0.000 A 
ATOM     23  C12 UNL     1     133.203 112.721 130.085  0.00  0.00    +0.000 A 
ENDBRANCH  16  18
ENDBRANCH  10  12
ENDBRANCH   1   9
BRANCH   7  24
ATOM     24  C27 UNL     1     132.196 120.683 131.163  0.00  0.00    +0.000 C 
ATOM     25  F2  UNL     1     132.286 121.986 130.747  0.00  0.00    +0.000 F 
ATOM     26  F3  UNL     1     131.273 120.152 130.172  0.00  0.00    +0.000 F 
ATOM     27  F4  UNL     1     133.335 119.997 130.983  0.00  0.00    +0.000 F 
ENDBRANCH   7  24
BRANCH   4  28
ATOM     28  C17 UNL     1     129.627 120.341 136.352  0.00  0.00    +0.000 C 
BRANCH  28  29
ATOM     29  S1  UNL     1     130.013 118.991 137.354  0.00  0.00    +0.000 S 
ATOM     30  O2  UNL     1     130.563 119.538 138.670  0.00  0.00    +0.000 OA
ATOM     31  O3  UNL     1     131.127 118.132 136.807  0.00  0.00    +0.000 OA
BRANCH  29  32
ATOM     32  C18 UNL     1     128.640 118.006 137.786  0.00  0.00    +0.000 A 
ATOM     33  C19 UNL     1     128.467 117.458 139.015  0.00  0.00    +0.000 A 
ATOM     34  C20 UNL     1     127.351 116.673 139.287  0.00  0.00    +0.000 A 
ATOM     35  C21 UNL     1     126.407 116.443 138.315  0.00  0.00    +0.000 A 
ATOM     36  C22 UNL     1     126.604 117.009 137.083  0.00  0.00    +0.000 A 
ATOM     37  C23 UNL     1     127.696 117.786 136.787  0.00  0.00    +0.000 A 
ENDBRANCH  29  32
ENDBRANCH  28  29
ENDBRANCH   4  28
TORSDOF 7
ENDMDL
MODEL 8
REMARK VINA RESULT:     -12.9      0.892      1.234
REMARK  Name = aganitha_data/bbio_mols_pdbqt/6.pdb
REMARK  7 active torsions:
REMARK  status: ('A' for Active; 'I' for Inactive)
REMARK    1  A    between atoms: C1_2  and  C14_16
REMARK    2  A    between atoms: N1_3  and  C2_4
REMARK    3  A    between atoms: C6_8  and  C7_9
REMARK    4  A    between atoms: C16_19  and  C17_20
REMARK    5  A    between atoms: C17_20  and  S1_21
REMARK    6  A    between atoms: S1_21  and  C18_22
REMARK    7  A    between atoms: C26_32  and  C27_33
REMARK                            x       y       z     vdW  Elec       q    Type
REMARK                         _______ _______ _______ _____ _____    ______ ____
ROOT
ATOM      1  C14 UNL     1     130.689 119.493 132.869  0.00  0.00    +0.000 A 
ATOM      2  C15 UNL     1     129.862 119.588 133.998  0.00  0.00    +0.000 A 
ATOM      3  F1  UNL     1     128.914 118.622 134.193  0.00  0.00    +0.000 F 
ATOM      4  C16 UNL     1     129.936 120.599 134.933  0.00  0.00    +0.000 A 
ATOM      5  C24 UNL     1     130.896 121.552 134.704  0.00  0.00    +0.000 A 
ATOM      6  C25 UNL     1     131.717 121.477 133.604  0.00  0.00    +0.000 A 
ATOM      7  C26 UNL     1     131.640 120.444 132.649  0.00  0.00    +0.000 A 
ENDROOT
BRANCH   1   9
ATOM      8  O1  UNL     1     130.433 118.613 130.773  0.00  0.00    +0.000 OA
ATOM      9  C1  UNL     1     130.539 118.294 132.034  0.00  0.00    +0.000 C 
ATOM     10  N1  UNL     1     130.507 116.968 132.399  0.00  0.00    +0.000 N 
ATOM     11  H1  UNL     1     130.647 116.722 133.412  0.00  0.00    +0.000 HD
BRANCH  10  12
ATOM     12  C2  UNL     1     130.330 115.903 131.458  0.00  0.00    +0.000 A 
ATOM     13  C3  UNL     1     129.144 115.386 131.070  0.00  0.00    +0.000 A 
ATOM     14  C4  UNL     1     129.088 114.375 130.137  0.00  0.00    +0.000 A 
ATOM     15  C5  UNL     1     130.202 113.837 129.554  0.00  0.00    +0.000 A 
ATOM     16  C6  UNL     1     131.417 114.355 129.942  0.00  0.00    +0.000 A 
ATOM     17  C13 UNL     1     131.489 115.360 130.868  0.00  0.00    +0.000 A 
BRANCH  16  18
ATOM     18  C7  UNL     1     132.656 113.831 129.361  0.00  0.00    +0.000 A 
ATOM     19  C8  UNL     1     132.618 113.204 128.138  0.00  0.00    +0.000 A 
ATOM     20  C9  UNL     1     133.792 112.717 127.610  0.00  0.00    +0.000 A 
ATOM     21  C10 UNL     1     135.008 112.844 128.280  0.00  0.00    +0.000 A 
ATOM     22  C11 UNL     1     135.039 113.472 129.504  0.00  0.00    +0.000 A 
ATOM     23  C12 UNL     1     133.858 113.952 130.017  0.00  0.00    +0.000 A 
ENDBRANCH  16  18
ENDBRANCH  10  12
ENDBRANCH   1   9
BRANCH   7  24
ATOM     24  C27 UNL     1     132.565 120.505 131.500  0.00  0.00    +0.000 C 
ATOM     25  F2  UNL     1     133.474 121.529 131.566  0.00  0.00    +0.000 F 
ATOM     26  F3  UNL     1     131.776 120.924 130.353  0.00  0.00    +0.000 F 
ATOM     27  F4  UNL     1     133.117 119.338 131.136  0.00  0.00    +0.000 F 
ENDBRANCH   7  24
BRANCH   4  28
ATOM     28  C17 UNL     1     128.977 120.594 136.057  0.00  0.00    +0.000 C 
BRANCH  28  29
ATOM     29  S1  UNL     1     129.214 119.446 137.322  0.00  0.00    +0.000 S 
ATOM     30  O2  UNL     1     128.372 119.894 138.514  0.00  0.00    +0.000 OA
ATOM     31  O3  UNL     1     130.627 119.411 137.850  0.00  0.00    +0.000 OA
BRANCH  29  32
ATOM     32  C18 UNL     1     128.669 117.834 136.935  0.00  0.00    +0.000 A 
ATOM     33  C19 UNL     1     129.508 116.811 136.635  0.00  0.00    +0.000 A 
ATOM     34  C20 UNL     1     129.002 115.552 136.326  0.00  0.00    +0.000 A 
ATOM     35  C21 UNL     1     127.646 115.327 136.320  0.00  0.00    +0.000 A 
ATOM     36  C22 UNL     1     126.821 116.377 136.628  0.00  0.00    +0.000 A 
ATOM     37  C23 UNL     1     127.292 117.629 136.935  0.00  0.00    +0.000 A 
ENDBRANCH  29  32
ENDBRANCH  28  29
ENDBRANCH   4  28
TORSDOF 7
ENDMDL
MODEL 9
REMARK VINA RESULT:     -12.9      0.201      1.287
REMARK  Name = aganitha_data/bbio_mols_pdbqt/6.pdb
REMARK  7 active torsions:
REMARK  status: ('A' for Active; 'I' for Inactive)
REMARK    1  A    between atoms: C1_2  and  C14_16
REMARK    2  A    between atoms: N1_3  and  C2_4
REMARK    3  A    between atoms: C6_8  and  C7_9
REMARK    4  A    between atoms: C16_19  and  C17_20
REMARK    5  A    between atoms: C17_20  and  S1_21
REMARK    6  A    between atoms: S1_21  and  C18_22
REMARK    7  A    between atoms: C26_32  and  C27_33
REMARK                            x       y       z     vdW  Elec       q    Type
REMARK                         _______ _______ _______ _____ _____    ______ ____
ROOT
ATOM      1  C14 UNL     1     130.875 119.343 132.974  0.00  0.00    +0.000 A 
ATOM      2  C15 UNL     1     130.234 119.336 134.223  0.00  0.00    +0.000 A 
ATOM      3  F1  UNL     1     129.396 118.298 134.517  0.00  0.00    +0.000 F 
ATOM      4  C16 UNL     1     130.390 120.316 135.181  0.00  0.00    +0.000 A 
ATOM      5  C24 UNL     1     131.236 121.344 134.850  0.00  0.00    +0.000 A 
ATOM      6  C25 UNL     1     131.874 121.369 133.632  0.00  0.00    +0.000 A 
ATOM      7  C26 UNL     1     131.714 120.368 132.653  0.00  0.00    +0.000 A 
ENDROOT
BRANCH   1   9
ATOM      8  O1  UNL     1     130.555 118.516 130.866  0.00  0.00    +0.000 OA
ATOM      9  C1  UNL     1     130.674 118.167 132.117  0.00  0.00    +0.000 C 
ATOM     10  N1  UNL     1     130.608 116.835 132.456  0.00  0.00    +0.000 N 
ATOM     11  H1  UNL     1     130.759 116.564 133.460  0.00  0.00    +0.000 HD
BRANCH  10  12
ATOM     12  C2  UNL     1     130.382 115.796 131.496  0.00  0.00    +0.000 A 
ATOM     13  C3  UNL     1     129.174 115.331 131.111  0.00  0.00    +0.000 A 
ATOM     14  C4  UNL     1     129.070 114.341 130.159  0.00  0.00    +0.000 A 
ATOM     15  C5  UNL     1     130.158 113.775 129.553  0.00  0.00    +0.000 A 
ATOM     16  C6  UNL     1     131.395 114.240 129.938  0.00  0.00    +0.000 A 
ATOM     17  C13 UNL     1     131.514 115.223 130.882  0.00  0.00    +0.000 A 
BRANCH  16  18
ATOM     18  C7  UNL     1     132.608 113.681 129.334  0.00  0.00    +0.000 A 
ATOM     19  C8  UNL     1     133.730 113.505 130.107  0.00  0.00    +0.000 A 
ATOM     20  C9  UNL     1     134.860 112.979 129.520  0.00  0.00    +0.000 A 
ATOM     21  C10 UNL     1     134.890 112.625 128.172  0.00  0.00    +0.000 A 
ATOM     22  C11 UNL     1     133.763 112.804 127.404  0.00  0.00    +0.000 A 
ATOM     23  C12 UNL     1     132.644 113.330 128.005  0.00  0.00    +0.000 A 
ENDBRANCH  16  18
ENDBRANCH  10  12
ENDBRANCH   1   9
BRANCH   7  24
ATOM     24  C27 UNL     1     132.438 120.538 131.378  0.00  0.00    +0.000 C 
ATOM     25  F2  UNL     1     133.184 121.685 131.304  0.00  0.00    +0.000 F 
ATOM     26  F3  UNL     1     131.432 120.809 130.363  0.00  0.00    +0.000 F 
ATOM     27  F4  UNL     1     133.097 119.456 130.936  0.00  0.00    +0.000 F 
ENDBRANCH   7  24
BRANCH   4  28
ATOM     28  C17 UNL     1     129.624 120.200 136.440  0.00  0.00    +0.000 C 
BRANCH  28  29
ATOM     29  S1  UNL     1     129.925 118.836 137.450  0.00  0.00    +0.000 S 
ATOM     30  O2  UNL     1     130.369 119.362 138.814  0.00  0.00    +0.000 OA
ATOM     31  O3  UNL     1     131.077 117.980 136.983  0.00  0.00    +0.000 OA
BRANCH  29  32
ATOM     32  C18 UNL     1     128.519 117.850 137.757  0.00  0.00    +0.000 A 
ATOM     33  C19 UNL     1     127.649 117.463 136.790  0.00  0.00    +0.000 A 
ATOM     34  C20 UNL     1     126.541 116.684 137.109  0.00  0.00    +0.000 A 
ATOM     35  C21 UNL     1     126.313 116.295 138.407  0.00  0.00    +0.000 A 
ATOM     36  C22 UNL     1     127.207 116.697 139.364  0.00  0.00    +0.000 A 
ATOM     37  C23 UNL     1     128.308 117.467 139.078  0.00  0.00    +0.000 A 
ENDBRANCH  29  32
ENDBRANCH  28  29
ENDBRANCH   4  28
TORSDOF 7
ENDMDL
