MODEL 1
REMARK VINA RESULT:     -13.2      0.000      0.000
REMARK  Name = aganitha_data/bbio_mols_pdbqt/AGAN 245-df-2-CN.pdb
REMARK  8 active torsions:
REMARK  status: ('A' for Active; 'I' for Inactive)
REMARK    1  A    between atoms: C1_1  and  C2_2
REMARK    2  A    between atoms: C5_5  and  N1_6
REMARK    3  A    between atoms: C6_7  and  C7_9
REMARK    4  A    between atoms: C9_12  and  C10_13
REMARK    5  A    between atoms: C10_13  and  S1_14
REMARK    6  A    between atoms: S1_14  and  C11_17
REMARK    7  A    between atoms: C19_25  and  C20_26
REMARK    8  A    between atoms: C21_30  and  C23_32
REMARK                            x       y       z     vdW  Elec       q    Type
REMARK                         _______ _______ _______ _____ _____    ______ ____
ROOT
ATOM      1  C7  UNL     1     131.116 119.227 132.200  0.00  0.00    +0.000 A 
ATOM      2  C8  UNL     1     130.200 118.996 133.204  0.00  0.00    +0.000 A 
ATOM      3  F1  UNL     1     129.486 117.836 133.243  0.00  0.00    +0.000 F 
ATOM      4  C9  UNL     1     129.946 119.919 134.230  0.00  0.00    +0.000 A 
ATOM      5  C17 UNL     1     130.676 121.076 134.166  0.00  0.00    +0.000 A 
ATOM      6  C18 UNL     1     131.596 121.308 133.160  0.00  0.00    +0.000 A 
ATOM      7  C19 UNL     1     131.840 120.377 132.143  0.00  0.00    +0.000 A 
ENDROOT
BRANCH   1   9
ATOM      8  N1  UNL     1     131.869 116.899 131.472  0.00  0.00    +0.000 N 
ATOM      9  C6  UNL     1     131.342 118.158 131.203  0.00  0.00    +0.000 C 
ATOM     10  O1  UNL     1     131.016 118.482 130.041  0.00  0.00    +0.000 OA
ATOM     11  H6  UNL     1     132.149 116.727 132.489  0.00  0.00    +0.000 HD
BRANCH   8  16
ATOM     12  C1  UNL     1     132.617 112.619 127.767  0.00  0.00    +0.000 C 
ATOM     13  C2  UNL     1     132.434 113.740 128.718  0.00  0.00    +0.000 A 
ATOM     14  C3  UNL     1     133.341 114.758 128.740  0.00  0.00    +0.000 A 
ATOM     15  C4  UNL     1     133.144 115.812 129.654  0.00  0.00    +0.000 A 
ATOM     16  C5  UNL     1     132.087 115.867 130.525  0.00  0.00    +0.000 A 
ATOM     17  C21 UNL     1     131.171 114.797 130.472  0.00  0.00    +0.000 A 
ATOM     18  C22 UNL     1     131.360 113.754 129.572  0.00  0.00    +0.000 A 
BRANCH  17  19
ATOM     19  C23 UNL     1     129.990 114.736 131.308  0.00  0.00    +0.000 A 
ATOM     20  C24 UNL     1     129.907 114.088 132.510  0.00  0.00    +0.000 A 
ATOM     21  C25 UNL     1     128.738 114.048 133.270  0.00  0.00    +0.000 A 
ATOM     22  C26 UNL     1     127.606 114.680 132.812  0.00  0.00    +0.000 A 
ATOM     23  C27 UNL     1     127.672 115.341 131.598  0.00  0.00    +0.000 A 
ATOM     24  C28 UNL     1     128.831 115.376 130.854  0.00  0.00    +0.000 A 
ENDBRANCH  17  19
ENDBRANCH   8  16
ENDBRANCH   1   9
BRANCH   7  25
ATOM     25  C20 UNL     1     132.873 120.700 131.112  0.00  0.00    +0.000 C 
ATOM     26  F2  UNL     1     133.670 121.756 131.568  0.00  0.00    +0.000 F 
ATOM     27  F3  UNL     1     133.702 119.623 130.859  0.00  0.00    +0.000 F 
ATOM     28  F4  UNL     1     132.279 121.058 129.944  0.00  0.00    +0.000 F 
ENDBRANCH   7  25
BRANCH   4  29
ATOM     29  C10 UNL     1     128.925 119.600 135.237  0.00  0.00    +0.000 C 
BRANCH  29  30
ATOM     30  S1  UNL     1     129.440 118.865 136.719  0.00  0.00    +0.000 S 
ATOM     31  O2  UNL     1     129.500 119.939 137.796  0.00  0.00    +0.000 OA
ATOM     32  O3  UNL     1     130.859 118.354 136.589  0.00  0.00    +0.000 OA
BRANCH  30  33
ATOM     33  C11 UNL     1     128.377 117.585 137.216  0.00  0.00    +0.000 A 
ATOM     34  C12 UNL     1     127.930 117.391 138.490  0.00  0.00    +0.000 A 
ATOM     35  C13 UNL     1     127.082 116.336 138.841  0.00  0.00    +0.000 A 
ATOM     36  C14 UNL     1     126.664 115.440 137.878  0.00  0.00    +0.000 A 
ATOM     37  C15 UNL     1     127.100 115.616 136.589  0.00  0.00    +0.000 A 
ATOM     38  C16 UNL     1     127.931 116.657 136.268  0.00  0.00    +0.000 A 
ENDBRANCH  30  33
ENDBRANCH  29  30
ENDBRANCH   4  29
TORSDOF 7
ENDMDL
MODEL 2
REMARK VINA RESULT:     -13.2      0.122      1.098
REMARK  Name = aganitha_data/bbio_mols_pdbqt/AGAN 245-df-2-CN.pdb
REMARK  8 active torsions:
REMARK  status: ('A' for Active; 'I' for Inactive)
REMARK    1  A    between atoms: C1_1  and  C2_2
REMARK    2  A    between atoms: C5_5  and  N1_6
REMARK    3  A    between atoms: C6_7  and  C7_9
REMARK    4  A    between atoms: C9_12  and  C10_13
REMARK    5  A    between atoms: C10_13  and  S1_14
REMARK    6  A    between atoms: S1_14  and  C11_17
REMARK    7  A    between atoms: C19_25  and  C20_26
REMARK    8  A    between atoms: C21_30  and  C23_32
REMARK                            x       y       z     vdW  Elec       q    Type
REMARK                         _______ _______ _______ _____ _____    ______ ____
ROOT
ATOM      1  C7  UNL     1     131.165 119.256 132.180  0.00  0.00    +0.000 A 
ATOM      2  C8  UNL     1     130.240 119.045 133.181  0.00  0.00    +0.000 A 
ATOM      3  F1  UNL     1     129.505 117.899 133.220  0.00  0.00    +0.000 F 
ATOM      4  C9  UNL     1     130.000 119.976 134.203  0.00  0.00    +0.000 A 
ATOM      5  C17 UNL     1     130.752 121.118 134.139  0.00  0.00    +0.000 A 
ATOM      6  C18 UNL     1     131.680 121.331 133.136  0.00  0.00    +0.000 A 
ATOM      7  C19 UNL     1     131.910 120.392 132.122  0.00  0.00    +0.000 A 
ENDROOT
BRANCH   1   9
ATOM      8  N1  UNL     1     131.840 116.900 131.468  0.00  0.00    +0.000 N 
ATOM      9  C6  UNL     1     131.375 118.180 131.187  0.00  0.00    +0.000 C 
ATOM     10  O1  UNL     1     131.097 118.519 130.017  0.00  0.00    +0.000 OA
ATOM     11  H6  UNL     1     132.082 116.714 132.492  0.00  0.00    +0.000 HD
BRANCH   8  16
ATOM     12  C1  UNL     1     132.513 112.598 127.772  0.00  0.00    +0.000 C 
ATOM     13  C2  UNL     1     132.351 113.724 128.721  0.00  0.00    +0.000 A 
ATOM     14  C3  UNL     1     133.301 114.700 128.777  0.00  0.00    +0.000 A 
ATOM     15  C4  UNL     1     133.122 115.760 129.688  0.00  0.00    +0.000 A 
ATOM     16  C5  UNL     1     132.041 115.861 130.524  0.00  0.00    +0.000 A 
ATOM     17  C21 UNL     1     131.080 114.833 130.437  0.00  0.00    +0.000 A 
ATOM     18  C22 UNL     1     131.251 113.785 129.540  0.00  0.00    +0.000 A 
BRANCH  17  19
ATOM     19  C23 UNL     1     129.871 114.824 131.234  0.00  0.00    +0.000 A 
ATOM     20  C24 UNL     1     128.722 115.502 130.932  0.00  0.00    +0.000 A 
ATOM     21  C25 UNL     1     127.588 115.472 131.745  0.00  0.00    +0.000 A 
ATOM     22  C26 UNL     1     127.602 114.735 132.905  0.00  0.00    +0.000 A 
ATOM     23  C27 UNL     1     128.757 114.042 133.226  0.00  0.00    +0.000 A 
ATOM     24  C28 UNL     1     129.872 114.077 132.418  0.00  0.00    +0.000 A 
ENDBRANCH  17  19
ENDBRANCH   8  16
ENDBRANCH   1   9
BRANCH   7  25
ATOM     25  C20 UNL     1     132.953 120.693 131.094  0.00  0.00    +0.000 C 
ATOM     26  F2  UNL     1     133.759 121.744 131.544  0.00  0.00    +0.000 F 
ATOM     27  F3  UNL     1     133.770 119.605 130.857  0.00  0.00    +0.000 F 
ATOM     28  F4  UNL     1     132.369 121.047 129.920  0.00  0.00    +0.000 F 
ENDBRANCH   7  25
BRANCH   4  29
ATOM     29  C10 UNL     1     128.970 119.679 135.208  0.00  0.00    +0.000 C 
BRANCH  29  30
ATOM     30  S1  UNL     1     129.451 118.854 136.654  0.00  0.00    +0.000 S 
ATOM     31  O2  UNL     1     129.453 119.855 137.802  0.00  0.00    +0.000 OA
ATOM     32  O3  UNL     1     130.883 118.379 136.538  0.00  0.00    +0.000 OA
BRANCH  30  33
ATOM     33  C11 UNL     1     128.399 117.526 137.027  0.00  0.00    +0.000 A 
ATOM     34  C12 UNL     1     127.810 116.711 136.105  0.00  0.00    +0.000 A 
ATOM     35  C13 UNL     1     126.960 115.659 136.458  0.00  0.00    +0.000 A 
ATOM     36  C14 UNL     1     126.688 115.411 137.788  0.00  0.00    +0.000 A 
ATOM     37  C15 UNL     1     127.269 116.218 138.734  0.00  0.00    +0.000 A 
ATOM     38  C16 UNL     1     128.099 117.242 138.365  0.00  0.00    +0.000 A 
ENDBRANCH  30  33
ENDBRANCH  29  30
ENDBRANCH   4  29
TORSDOF 7
ENDMDL
MODEL 3
REMARK VINA RESULT:     -13.2      0.067      1.007
REMARK  Name = aganitha_data/bbio_mols_pdbqt/AGAN 245-df-2-CN.pdb
REMARK  8 active torsions:
REMARK  status: ('A' for Active; 'I' for Inactive)
REMARK    1  A    between atoms: C1_1  and  C2_2
REMARK    2  A    between atoms: C5_5  and  N1_6
REMARK    3  A    between atoms: C6_7  and  C7_9
REMARK    4  A    between atoms: C9_12  and  C10_13
REMARK    5  A    between atoms: C10_13  and  S1_14
REMARK    6  A    between atoms: S1_14  and  C11_17
REMARK    7  A    between atoms: C19_25  and  C20_26
REMARK    8  A    between atoms: C21_30  and  C23_32
REMARK                            x       y       z     vdW  Elec       q    Type
REMARK                         _______ _______ _______ _____ _____    ______ ____
ROOT
ATOM      1  C7  UNL     1     131.132 119.237 132.196  0.00  0.00    +0.000 A 
ATOM      2  C8  UNL     1     130.208 119.007 133.193  0.00  0.00    +0.000 A 
ATOM      3  F1  UNL     1     129.490 117.850 133.225  0.00  0.00    +0.000 F 
ATOM      4  C9  UNL     1     129.951 119.930 134.218  0.00  0.00    +0.000 A 
ATOM      5  C17 UNL     1     130.685 121.084 134.161  0.00  0.00    +0.000 A 
ATOM      6  C18 UNL     1     131.613 121.315 133.162  0.00  0.00    +0.000 A 
ATOM      7  C19 UNL     1     131.860 120.384 132.145  0.00  0.00    +0.000 A 
ENDROOT
BRANCH   1   9
ATOM      8  N1  UNL     1     131.849 116.895 131.475  0.00  0.00    +0.000 N 
ATOM      9  C6  UNL     1     131.361 118.168 131.199  0.00  0.00    +0.000 C 
ATOM     10  O1  UNL     1     131.078 118.506 130.030  0.00  0.00    +0.000 OA
ATOM     11  H6  UNL     1     132.094 116.710 132.498  0.00  0.00    +0.000 HD
BRANCH   8  16
ATOM     12  C1  UNL     1     132.599 112.620 127.764  0.00  0.00    +0.000 C 
ATOM     13  C2  UNL     1     132.416 113.739 128.717  0.00  0.00    +0.000 A 
ATOM     14  C3  UNL     1     133.352 114.729 128.779  0.00  0.00    +0.000 A 
ATOM     15  C4  UNL     1     133.154 115.782 129.694  0.00  0.00    +0.000 A 
ATOM     16  C5  UNL     1     132.069 115.863 130.527  0.00  0.00    +0.000 A 
ATOM     17  C21 UNL     1     131.124 114.822 130.433  0.00  0.00    +0.000 A 
ATOM     18  C22 UNL     1     131.313 113.780 129.533  0.00  0.00    +0.000 A 
BRANCH  17  19
ATOM     19  C23 UNL     1     129.913 114.791 131.227  0.00  0.00    +0.000 A 
ATOM     20  C24 UNL     1     128.742 115.422 130.905  0.00  0.00    +0.000 A 
ATOM     21  C25 UNL     1     127.607 115.373 131.714  0.00  0.00    +0.000 A 
ATOM     22  C26 UNL     1     127.641 114.665 132.892  0.00  0.00    +0.000 A 
ATOM     23  C27 UNL     1     128.817 114.020 133.234  0.00  0.00    +0.000 A 
ATOM     24  C28 UNL     1     129.934 114.074 132.429  0.00  0.00    +0.000 A 
ENDBRANCH  17  19
ENDBRANCH   8  16
ENDBRANCH   1   9
BRANCH   7  25
ATOM     25  C20 UNL     1     132.902 120.705 131.121  0.00  0.00    +0.000 C 
ATOM     26  F2  UNL     1     132.277 121.062 129.920  0.00  0.00    +0.000 F 
ATOM     27  F3  UNL     1     133.699 121.763 131.514  0.00  0.00    +0.000 F 
ATOM     28  F4  UNL     1     133.702 119.629 130.908  0.00  0.00    +0.000 F 
ENDBRANCH   7  25
BRANCH   4  29
ATOM     29  C10 UNL     1     128.922 119.613 135.218  0.00  0.00    +0.000 C 
BRANCH  29  30
ATOM     30  S1  UNL     1     129.425 118.872 136.702  0.00  0.00    +0.000 S 
ATOM     31  O2  UNL     1     129.449 119.938 137.790  0.00  0.00    +0.000 OA
ATOM     32  O3  UNL     1     130.853 118.385 136.591  0.00  0.00    +0.000 OA
BRANCH  30  33
ATOM     33  C11 UNL     1     128.374 117.572 137.170  0.00  0.00    +0.000 A 
ATOM     34  C12 UNL     1     127.975 117.311 138.448  0.00  0.00    +0.000 A 
ATOM     35  C13 UNL     1     127.135 116.241 138.773  0.00  0.00    +0.000 A 
ATOM     36  C14 UNL     1     126.676 115.400 137.780  0.00  0.00    +0.000 A 
ATOM     37  C15 UNL     1     127.064 115.644 136.488  0.00  0.00    +0.000 A 
ATOM     38  C16 UNL     1     127.887 116.697 136.191  0.00  0.00    +0.000 A 
ENDBRANCH  30  33
ENDBRANCH  29  30
ENDBRANCH   4  29
TORSDOF 7
ENDMDL
MODEL 4
REMARK VINA RESULT:     -13.1      0.119      1.007
REMARK  Name = aganitha_data/bbio_mols_pdbqt/AGAN 245-df-2-CN.pdb
REMARK  8 active torsions:
REMARK  status: ('A' for Active; 'I' for Inactive)
REMARK    1  A    between atoms: C1_1  and  C2_2
REMARK    2  A    between atoms: C5_5  and  N1_6
REMARK    3  A    between atoms: C6_7  and  C7_9
REMARK    4  A    between atoms: C9_12  and  C10_13
REMARK    5  A    between atoms: C10_13  and  S1_14
REMARK    6  A    between atoms: S1_14  and  C11_17
REMARK    7  A    between atoms: C19_25  and  C20_26
REMARK    8  A    between atoms: C21_30  and  C23_32
REMARK                            x       y       z     vdW  Elec       q    Type
REMARK                         _______ _______ _______ _____ _____    ______ ____
ROOT
ATOM      1  C7  UNL     1     131.112 119.326 132.249  0.00  0.00    +0.000 A 
ATOM      2  C8  UNL     1     130.204 119.101 133.263  0.00  0.00    +0.000 A 
ATOM      3  F1  UNL     1     129.486 117.945 133.311  0.00  0.00    +0.000 F 
ATOM      4  C9  UNL     1     129.965 120.028 134.288  0.00  0.00    +0.000 A 
ATOM      5  C17 UNL     1     130.700 121.181 134.214  0.00  0.00    +0.000 A 
ATOM      6  C18 UNL     1     131.611 121.407 133.199  0.00  0.00    +0.000 A 
ATOM      7  C19 UNL     1     131.840 120.472 132.182  0.00  0.00    +0.000 A 
ENDROOT
BRANCH   1   9
ATOM      8  N1  UNL     1     131.835 116.988 131.522  0.00  0.00    +0.000 N 
ATOM      9  C6  UNL     1     131.323 118.253 131.252  0.00  0.00    +0.000 C 
ATOM     10  O1  UNL     1     131.000 118.580 130.091  0.00  0.00    +0.000 OA
ATOM     11  H6  UNL     1     132.113 116.813 132.538  0.00  0.00    +0.000 HD
BRANCH   8  16
ATOM     12  C1  UNL     1     132.522 112.696 127.818  0.00  0.00    +0.000 C 
ATOM     13  C2  UNL     1     132.355 113.820 128.768  0.00  0.00    +0.000 A 
ATOM     14  C3  UNL     1     133.279 114.822 128.795  0.00  0.00    +0.000 A 
ATOM     15  C4  UNL     1     133.097 115.879 129.709  0.00  0.00    +0.000 A 
ATOM     16  C5  UNL     1     132.038 115.953 130.575  0.00  0.00    +0.000 A 
ATOM     17  C21 UNL     1     131.103 114.899 130.517  0.00  0.00    +0.000 A 
ATOM     18  C22 UNL     1     131.277 113.853 129.618  0.00  0.00    +0.000 A 
BRANCH  17  19
ATOM     19  C23 UNL     1     129.918 114.859 131.348  0.00  0.00    +0.000 A 
ATOM     20  C24 UNL     1     129.819 114.217 132.552  0.00  0.00    +0.000 A 
ATOM     21  C25 UNL     1     128.646 114.197 133.307  0.00  0.00    +0.000 A 
ATOM     22  C26 UNL     1     127.526 114.845 132.842  0.00  0.00    +0.000 A 
ATOM     23  C27 UNL     1     127.608 115.500 131.625  0.00  0.00    +0.000 A 
ATOM     24  C28 UNL     1     128.770 115.515 130.886  0.00  0.00    +0.000 A 
ENDBRANCH  17  19
ENDBRANCH   8  16
ENDBRANCH   1   9
BRANCH   7  25
ATOM     25  C20 UNL     1     132.865 120.788 131.139  0.00  0.00    +0.000 C 
ATOM     26  F2  UNL     1     133.674 119.666 130.929  0.00  0.00    +0.000 F 
ATOM     27  F3  UNL     1     132.283 121.122 129.931  0.00  0.00    +0.000 F 
ATOM     28  F4  UNL     1     133.638 121.831 131.539  0.00  0.00    +0.000 F 
ENDBRANCH   7  25
BRANCH   4  29
ATOM     29  C10 UNL     1     128.953 119.717 135.307  0.00  0.00    +0.000 C 
BRANCH  29  30
ATOM     30  S1  UNL     1     129.456 118.854 136.722  0.00  0.00    +0.000 S 
ATOM     31  O2  UNL     1     129.493 119.827 137.893  0.00  0.00    +0.000 OA
ATOM     32  O3  UNL     1     130.880 118.366 136.565  0.00  0.00    +0.000 OA
BRANCH  30  33
ATOM     33  C11 UNL     1     128.397 117.527 137.088  0.00  0.00    +0.000 A 
ATOM     34  C12 UNL     1     127.940 116.619 136.178  0.00  0.00    +0.000 A 
ATOM     35  C13 UNL     1     127.078 115.573 136.522  0.00  0.00    +0.000 A 
ATOM     36  C14 UNL     1     126.657 115.430 137.829  0.00  0.00    +0.000 A 
ATOM     37  C15 UNL     1     127.105 116.332 138.761  0.00  0.00    +0.000 A 
ATOM     38  C16 UNL     1     127.949 117.348 138.402  0.00  0.00    +0.000 A 
ENDBRANCH  30  33
ENDBRANCH  29  30
ENDBRANCH   4  29
TORSDOF 7
ENDMDL
MODEL 5
REMARK VINA RESULT:     -12.0      2.417      6.735
REMARK  Name = aganitha_data/bbio_mols_pdbqt/AGAN 245-df-2-CN.pdb
REMARK  8 active torsions:
REMARK  status: ('A' for Active; 'I' for Inactive)
REMARK    1  A    between atoms: C1_1  and  C2_2
REMARK    2  A    between atoms: C5_5  and  N1_6
REMARK    3  A    between atoms: C6_7  and  C7_9
REMARK    4  A    between atoms: C9_12  and  C10_13
REMARK    5  A    between atoms: C10_13  and  S1_14
REMARK    6  A    between atoms: S1_14  and  C11_17
REMARK    7  A    between atoms: C19_25  and  C20_26
REMARK    8  A    between atoms: C21_30  and  C23_32
REMARK                            x       y       z     vdW  Elec       q    Type
REMARK                         _______ _______ _______ _____ _____    ______ ____
ROOT
ATOM      1  C7  UNL     1     130.622 119.359 132.839  0.00  0.00    +0.000 A 
ATOM      2  C8  UNL     1     130.841 118.676 131.662  0.00  0.00    +0.000 A 
ATOM      3  F1  UNL     1     130.207 117.497 131.412  0.00  0.00    +0.000 F 
ATOM      4  C9  UNL     1     131.712 119.140 130.665  0.00  0.00    +0.000 A 
ATOM      5  C17 UNL     1     132.336 120.326 130.942  0.00  0.00    +0.000 A 
ATOM      6  C18 UNL     1     132.117 121.013 132.122  0.00  0.00    +0.000 A 
ATOM      7  C19 UNL     1     131.243 120.538 133.109  0.00  0.00    +0.000 A 
ENDROOT
BRANCH   1   9
ATOM      8  N1  UNL     1     129.877 117.769 134.692  0.00  0.00    +0.000 N 
ATOM      9  C6  UNL     1     129.637 118.804 133.795  0.00  0.00    +0.000 C 
ATOM     10  O1  UNL     1     128.517 119.353 133.732  0.00  0.00    +0.000 OA
ATOM     11  H6  UNL     1     130.855 117.341 134.648  0.00  0.00    +0.000 HD
BRANCH   8  16
ATOM     12  C1  UNL     1     126.007 115.522 138.240  0.00  0.00    +0.000 C 
ATOM     13  C2  UNL     1     127.020 116.112 137.334  0.00  0.00    +0.000 A 
ATOM     14  C3  UNL     1     127.808 117.132 137.779  0.00  0.00    +0.000 A 
ATOM     15  C4  UNL     1     128.763 117.676 136.897  0.00  0.00    +0.000 A 
ATOM     16  C5  UNL     1     128.942 117.232 135.613  0.00  0.00    +0.000 A 
ATOM     17  C21 UNL     1     128.109 116.176 135.190  0.00  0.00    +0.000 A 
ATOM     18  C22 UNL     1     127.165 115.636 136.055  0.00  0.00    +0.000 A 
BRANCH  17  19
ATOM     19  C23 UNL     1     128.207 115.584 133.872  0.00  0.00    +0.000 A 
ATOM     20  C24 UNL     1     127.510 115.994 132.769  0.00  0.00    +0.000 A 
ATOM     21  C25 UNL     1     127.630 115.377 131.524  0.00  0.00    +0.000 A 
ATOM     22  C26 UNL     1     128.481 114.307 131.373  0.00  0.00    +0.000 A 
ATOM     23  C27 UNL     1     129.195 113.879 132.479  0.00  0.00    +0.000 A 
ATOM     24  C28 UNL     1     129.070 114.494 133.705  0.00  0.00    +0.000 A 
ENDBRANCH  17  19
ENDBRANCH   8  16
ENDBRANCH   1   9
BRANCH   7  25
ATOM     25  C20 UNL     1     131.045 121.361 134.342  0.00  0.00    +0.000 C 
ATOM     26  F2  UNL     1     131.982 122.399 134.363  0.00  0.00    +0.000 F 
ATOM     27  F3  UNL     1     129.785 121.927 134.385  0.00  0.00    +0.000 F 
ATOM     28  F4  UNL     1     131.201 120.593 135.451  0.00  0.00    +0.000 F 
ENDBRANCH   7  25
BRANCH   4  29
ATOM     29  C10 UNL     1     131.909 118.325 129.457  0.00  0.00    +0.000 C 
BRANCH  29  30
ATOM     30  S1  UNL     1     133.387 117.434 129.304  0.00  0.00    +0.000 S 
ATOM     31  O2  UNL     1     134.407 118.022 130.270  0.00  0.00    +0.000 OA
ATOM     32  O3  UNL     1     133.982 117.633 127.927  0.00  0.00    +0.000 OA
BRANCH  30  33
ATOM     33  C11 UNL     1     133.165 115.744 129.632  0.00  0.00    +0.000 A 
ATOM     34  C12 UNL     1     132.043 115.194 130.180  0.00  0.00    +0.000 A 
ATOM     35  C13 UNL     1     131.920 113.825 130.435  0.00  0.00    +0.000 A 
ATOM     36  C14 UNL     1     132.960 112.971 130.128  0.00  0.00    +0.000 A 
ATOM     37  C15 UNL     1     134.098 113.502 129.575  0.00  0.00    +0.000 A 
ATOM     38  C16 UNL     1     134.198 114.846 129.334  0.00  0.00    +0.000 A 
ENDBRANCH  30  33
ENDBRANCH  29  30
ENDBRANCH   4  29
TORSDOF 7
ENDMDL
MODEL 6
REMARK VINA RESULT:     -11.9      0.851      1.525
REMARK  Name = aganitha_data/bbio_mols_pdbqt/AGAN 245-df-2-CN.pdb
REMARK  8 active torsions:
REMARK  status: ('A' for Active; 'I' for Inactive)
REMARK    1  A    between atoms: C1_1  and  C2_2
REMARK    2  A    between atoms: C5_5  and  N1_6
REMARK    3  A    between atoms: C6_7  and  C7_9
REMARK    4  A    between atoms: C9_12  and  C10_13
REMARK    5  A    between atoms: C10_13  and  S1_14
REMARK    6  A    between atoms: S1_14  and  C11_17
REMARK    7  A    between atoms: C19_25  and  C20_26
REMARK    8  A    between atoms: C21_30  and  C23_32
REMARK                            x       y       z     vdW  Elec       q    Type
REMARK                         _______ _______ _______ _____ _____    ______ ____
ROOT
ATOM      1  C7  UNL     1     131.283 119.248 132.219  0.00  0.00    +0.000 A 
ATOM      2  C8  UNL     1     130.349 118.853 133.153  0.00  0.00    +0.000 A 
ATOM      3  F1  UNL     1     129.995 117.543 133.273  0.00  0.00    +0.000 F 
ATOM      4  C9  UNL     1     129.715 119.754 134.022  0.00  0.00    +0.000 A 
ATOM      5  C17 UNL     1     130.089 121.063 133.878  0.00  0.00    +0.000 A 
ATOM      6  C18 UNL     1     131.026 121.460 132.943  0.00  0.00    +0.000 A 
ATOM      7  C19 UNL     1     131.653 120.549 132.082  0.00  0.00    +0.000 A 
ENDROOT
BRANCH   1   9
ATOM      8  N1  UNL     1     131.385 116.959 131.094  0.00  0.00    +0.000 N 
ATOM      9  C6  UNL     1     131.929 118.203 131.394  0.00  0.00    +0.000 C 
ATOM     10  O1  UNL     1     133.058 118.529 130.969  0.00  0.00    +0.000 OA
ATOM     11  H6  UNL     1     130.430 116.759 131.529  0.00  0.00    +0.000 HD
BRANCH   8  16
ATOM     12  C1  UNL     1     133.731 112.760 128.015  0.00  0.00    +0.000 C 
ATOM     13  C2  UNL     1     133.132 113.862 128.804  0.00  0.00    +0.000 A 
ATOM     14  C3  UNL     1     133.726 115.089 128.805  0.00  0.00    +0.000 A 
ATOM     15  C4  UNL     1     133.136 116.119 129.563  0.00  0.00    +0.000 A 
ATOM     16  C5  UNL     1     131.994 115.952 130.302  0.00  0.00    +0.000 A 
ATOM     17  C21 UNL     1     131.408 114.670 130.275  0.00  0.00    +0.000 A 
ATOM     18  C22 UNL     1     131.986 113.649 129.529  0.00  0.00    +0.000 A 
BRANCH  17  19
ATOM     19  C23 UNL     1     130.183 114.355 130.980  0.00  0.00    +0.000 A 
ATOM     20  C24 UNL     1     128.932 114.361 130.428  0.00  0.00    +0.000 A 
ATOM     21  C25 UNL     1     127.780 114.064 131.158  0.00  0.00    +0.000 A 
ATOM     22  C26 UNL     1     127.882 113.747 132.492  0.00  0.00    +0.000 A 
ATOM     23  C27 UNL     1     129.141 113.735 133.067  0.00  0.00    +0.000 A 
ATOM     24  C28 UNL     1     130.273 114.030 132.339  0.00  0.00    +0.000 A 
ENDBRANCH  17  19
ENDBRANCH   8  16
ENDBRANCH   1   9
BRANCH   7  25
ATOM     25  C20 UNL     1     132.675 121.064 131.120  0.00  0.00    +0.000 C 
ATOM     26  F2  UNL     1     132.306 120.711 129.817  0.00  0.00    +0.000 F 
ATOM     27  F3  UNL     1     132.783 122.440 131.172  0.00  0.00    +0.000 F 
ATOM     28  F4  UNL     1     133.894 120.534 131.400  0.00  0.00    +0.000 F 
ENDBRANCH   7  25
BRANCH   4  29
ATOM     29  C10 UNL     1     128.706 119.245 134.961  0.00  0.00    +0.000 C 
BRANCH  29  30
ATOM     30  S1  UNL     1     129.066 119.295 136.655  0.00  0.00    +0.000 S 
ATOM     31  O2  UNL     1     128.762 120.694 137.172  0.00  0.00    +0.000 OA
ATOM     32  O3  UNL     1     130.549 119.100 136.884  0.00  0.00    +0.000 OA
BRANCH  30  33
ATOM     33  C11 UNL     1     128.154 118.120 137.551  0.00  0.00    +0.000 A 
ATOM     34  C12 UNL     1     127.204 117.298 137.019  0.00  0.00    +0.000 A 
ATOM     35  C13 UNL     1     126.488 116.375 137.788  0.00  0.00    +0.000 A 
ATOM     36  C14 UNL     1     126.734 116.269 139.142  0.00  0.00    +0.000 A 
ATOM     37  C15 UNL     1     127.686 117.085 139.697  0.00  0.00    +0.000 A 
ATOM     38  C16 UNL     1     128.375 117.982 138.926  0.00  0.00    +0.000 A 
ENDBRANCH  30  33
ENDBRANCH  29  30
ENDBRANCH   4  29
TORSDOF 7
ENDMDL
MODEL 7
REMARK VINA RESULT:     -11.8      2.507      6.723
REMARK  Name = aganitha_data/bbio_mols_pdbqt/AGAN 245-df-2-CN.pdb
REMARK  8 active torsions:
REMARK  status: ('A' for Active; 'I' for Inactive)
REMARK    1  A    between atoms: C1_1  and  C2_2
REMARK    2  A    between atoms: C5_5  and  N1_6
REMARK    3  A    between atoms: C6_7  and  C7_9
REMARK    4  A    between atoms: C9_12  and  C10_13
REMARK    5  A    between atoms: C10_13  and  S1_14
REMARK    6  A    between atoms: S1_14  and  C11_17
REMARK    7  A    between atoms: C19_25  and  C20_26
REMARK    8  A    between atoms: C21_30  and  C23_32
REMARK                            x       y       z     vdW  Elec       q    Type
REMARK                         _______ _______ _______ _____ _____    ______ ____
ROOT
ATOM      1  C7  UNL     1     131.056 119.464 132.600  0.00  0.00    +0.000 A 
ATOM      2  C8  UNL     1     131.435 118.782 131.463  0.00  0.00    +0.000 A 
ATOM      3  F1  UNL     1     130.914 117.556 131.180  0.00  0.00    +0.000 F 
ATOM      4  C9  UNL     1     132.363 119.294 130.544  0.00  0.00    +0.000 A 
ATOM      5  C17 UNL     1     132.872 120.527 130.854  0.00  0.00    +0.000 A 
ATOM      6  C18 UNL     1     132.491 121.212 131.994  0.00  0.00    +0.000 A 
ATOM      7  C19 UNL     1     131.562 120.689 132.903  0.00  0.00    +0.000 A 
ENDROOT
BRANCH   1   9
ATOM      8  N1  UNL     1     130.241 117.813 134.368  0.00  0.00    +0.000 N 
ATOM      9  C6  UNL     1     130.026 118.852 133.469  0.00  0.00    +0.000 C 
ATOM     10  O1  UNL     1     128.891 119.354 133.328  0.00  0.00    +0.000 OA
ATOM     11  H6  UNL     1     131.237 117.428 134.394  0.00  0.00    +0.000 HD
BRANCH   8  16
ATOM     12  C1  UNL     1     126.209 115.350 137.576  0.00  0.00    +0.000 C 
ATOM     13  C2  UNL     1     127.263 115.995 136.759  0.00  0.00    +0.000 A 
ATOM     14  C3  UNL     1     127.984 117.026 137.285  0.00  0.00    +0.000 A 
ATOM     15  C4  UNL     1     128.981 117.623 136.487  0.00  0.00    +0.000 A 
ATOM     16  C5  UNL     1     129.262 117.222 135.207  0.00  0.00    +0.000 A 
ATOM     17  C21 UNL     1     128.495 116.153 134.699  0.00  0.00    +0.000 A 
ATOM     18  C22 UNL     1     127.511 115.560 135.481  0.00  0.00    +0.000 A 
BRANCH  17  19
ATOM     19  C23 UNL     1     128.703 115.602 133.376  0.00  0.00    +0.000 A 
ATOM     20  C24 UNL     1     129.592 114.610 133.065  0.00  0.00    +0.000 A 
ATOM     21  C25 UNL     1     129.764 114.125 131.769  0.00  0.00    +0.000 A 
ATOM     22  C26 UNL     1     129.018 114.651 130.741  0.00  0.00    +0.000 A 
ATOM     23  C27 UNL     1     128.112 115.655 131.037  0.00  0.00    +0.000 A 
ATOM     24  C28 UNL     1     127.949 116.128 132.320  0.00  0.00    +0.000 A 
ENDBRANCH  17  19
ENDBRANCH   8  16
ENDBRANCH   1   9
BRANCH   7  25
ATOM     25  C20 UNL     1     131.188 121.512 134.094  0.00  0.00    +0.000 C 
ATOM     26  F2  UNL     1     129.873 121.966 133.950  0.00  0.00    +0.000 F 
ATOM     27  F3  UNL     1     131.258 120.782 135.265  0.00  0.00    +0.000 F 
ATOM     28  F4  UNL     1     132.021 122.578 134.210  0.00  0.00    +0.000 F 
ENDBRANCH   7  25
BRANCH   4  29
ATOM     29  C10 UNL     1     132.733 118.479 129.379  0.00  0.00    +0.000 C 
BRANCH  29  30
ATOM     30  S1  UNL     1     134.262 117.665 129.402  0.00  0.00    +0.000 S 
ATOM     31  O2  UNL     1     135.068 118.185 130.585  0.00  0.00    +0.000 OA
ATOM     32  O3  UNL     1     135.073 118.030 128.177  0.00  0.00    +0.000 OA
BRANCH  30  33
ATOM     33  C11 UNL     1     134.081 115.942 129.519  0.00  0.00    +0.000 A 
ATOM     34  C12 UNL     1     135.111 115.047 129.520  0.00  0.00    +0.000 A 
ATOM     35  C13 UNL     1     134.911 113.666 129.605  0.00  0.00    +0.000 A 
ATOM     36  C14 UNL     1     133.630 113.160 129.693  0.00  0.00    +0.000 A 
ATOM     37  C15 UNL     1     132.579 114.042 129.694  0.00  0.00    +0.000 A 
ATOM     38  C16 UNL     1     132.798 115.391 129.610  0.00  0.00    +0.000 A 
ENDBRANCH  30  33
ENDBRANCH  29  30
ENDBRANCH   4  29
TORSDOF 7
ENDMDL
MODEL 8
REMARK VINA RESULT:     -11.7      2.557      6.793
REMARK  Name = aganitha_data/bbio_mols_pdbqt/AGAN 245-df-2-CN.pdb
REMARK  8 active torsions:
REMARK  status: ('A' for Active; 'I' for Inactive)
REMARK    1  A    between atoms: C1_1  and  C2_2
REMARK    2  A    between atoms: C5_5  and  N1_6
REMARK    3  A    between atoms: C6_7  and  C7_9
REMARK    4  A    between atoms: C9_12  and  C10_13
REMARK    5  A    between atoms: C10_13  and  S1_14
REMARK    6  A    between atoms: S1_14  and  C11_17
REMARK    7  A    between atoms: C19_25  and  C20_26
REMARK    8  A    between atoms: C21_30  and  C23_32
REMARK                            x       y       z     vdW  Elec       q    Type
REMARK                         _______ _______ _______ _____ _____    ______ ____
ROOT
ATOM      1  C7  UNL     1     131.171 119.294 132.396  0.00  0.00    +0.000 A 
ATOM      2  C8  UNL     1     131.601 118.583 131.295  0.00  0.00    +0.000 A 
ATOM      3  F1  UNL     1     131.102 117.345 131.027  0.00  0.00    +0.000 F 
ATOM      4  C9  UNL     1     132.561 119.077 130.399  0.00  0.00    +0.000 A 
ATOM      5  C17 UNL     1     133.047 120.323 130.693  0.00  0.00    +0.000 A 
ATOM      6  C18 UNL     1     132.616 121.037 131.796  0.00  0.00    +0.000 A 
ATOM      7  C19 UNL     1     131.656 120.532 132.683  0.00  0.00    +0.000 A 
ENDROOT
BRANCH   1   9
ATOM      8  N1  UNL     1     130.308 117.720 134.211  0.00  0.00    +0.000 N 
ATOM      9  C6  UNL     1     130.113 118.697 133.241  0.00  0.00    +0.000 C 
ATOM     10  O1  UNL     1     128.973 119.150 133.007  0.00  0.00    +0.000 OA
ATOM     11  H6  UNL     1     131.313 117.372 134.315  0.00  0.00    +0.000 HD
BRANCH   8  16
ATOM     12  C1  UNL     1     126.162 115.329 137.326  0.00  0.00    +0.000 C 
ATOM     13  C2  UNL     1     127.246 115.955 136.533  0.00  0.00    +0.000 A 
ATOM     14  C3  UNL     1     128.010 116.935 137.095  0.00  0.00    +0.000 A 
ATOM     15  C4  UNL     1     129.034 117.515 136.319  0.00  0.00    +0.000 A 
ATOM     16  C5  UNL     1     129.302 117.145 135.027  0.00  0.00    +0.000 A 
ATOM     17  C21 UNL     1     128.491 116.128 134.482  0.00  0.00    +0.000 A 
ATOM     18  C22 UNL     1     127.479 115.553 135.242  0.00  0.00    +0.000 A 
BRANCH  17  19
ATOM     19  C23 UNL     1     128.679 115.613 133.142  0.00  0.00    +0.000 A 
ATOM     20  C24 UNL     1     127.955 115.987 132.044  0.00  0.00    +0.000 A 
ATOM     21  C25 UNL     1     128.167 115.447 130.775  0.00  0.00    +0.000 A 
ATOM     22  C26 UNL     1     129.142 114.495 130.595  0.00  0.00    +0.000 A 
ATOM     23  C27 UNL     1     129.885 114.104 131.696  0.00  0.00    +0.000 A 
ATOM     24  C28 UNL     1     129.669 114.643 132.945  0.00  0.00    +0.000 A 
ENDBRANCH  17  19
ENDBRANCH   8  16
ENDBRANCH   1   9
BRANCH   7  25
ATOM     25  C20 UNL     1     131.228 121.385 133.834  0.00  0.00    +0.000 C 
ATOM     26  F2  UNL     1     132.055 122.511 133.909  0.00  0.00    +0.000 F 
ATOM     27  F3  UNL     1     129.926 121.824 133.692  0.00  0.00    +0.000 F 
ATOM     28  F4  UNL     1     131.314 120.687 134.995  0.00  0.00    +0.000 F 
ENDBRANCH   7  25
BRANCH   4  29
ATOM     29  C10 UNL     1     132.983 118.233 129.273  0.00  0.00    +0.000 C 
BRANCH  29  30
ATOM     30  S1  UNL     1     134.527 117.452 129.370  0.00  0.00    +0.000 S 
ATOM     31  O2  UNL     1     135.279 118.016 130.568  0.00  0.00    +0.000 OA
ATOM     32  O3  UNL     1     135.374 117.806 128.167  0.00  0.00    +0.000 OA
BRANCH  30  33
ATOM     33  C11 UNL     1     134.378 115.729 129.521  0.00  0.00    +0.000 A 
ATOM     34  C12 UNL     1     135.422 114.864 129.669  0.00  0.00    +0.000 A 
ATOM     35  C13 UNL     1     135.249 113.481 129.776  0.00  0.00    +0.000 A 
ATOM     36  C14 UNL     1     133.979 112.942 129.734  0.00  0.00    +0.000 A 
ATOM     37  C15 UNL     1     132.913 113.793 129.587  0.00  0.00    +0.000 A 
ATOM     38  C16 UNL     1     133.106 115.144 129.484  0.00  0.00    +0.000 A 
ENDBRANCH  30  33
ENDBRANCH  29  30
ENDBRANCH   4  29
TORSDOF 7
ENDMDL
MODEL 9
REMARK VINA RESULT:     -11.5      2.497      7.114
REMARK  Name = aganitha_data/bbio_mols_pdbqt/AGAN 245-df-2-CN.pdb
REMARK  8 active torsions:
REMARK  status: ('A' for Active; 'I' for Inactive)
REMARK    1  A    between atoms: C1_1  and  C2_2
REMARK    2  A    between atoms: C5_5  and  N1_6
REMARK    3  A    between atoms: C6_7  and  C7_9
REMARK    4  A    between atoms: C9_12  and  C10_13
REMARK    5  A    between atoms: C10_13  and  S1_14
REMARK    6  A    between atoms: S1_14  and  C11_17
REMARK    7  A    between atoms: C19_25  and  C20_26
REMARK    8  A    between atoms: C21_30  and  C23_32
REMARK                            x       y       z     vdW  Elec       q    Type
REMARK                         _______ _______ _______ _____ _____    ______ ____
ROOT
ATOM      1  C7  UNL     1     130.604 118.644 132.909  0.00  0.00    +0.000 A 
ATOM      2  C8  UNL     1     130.842 117.762 131.876  0.00  0.00    +0.000 A 
ATOM      3  F1  UNL     1     130.232 116.545 131.845  0.00  0.00    +0.000 F 
ATOM      4  C9  UNL     1     131.710 118.053 130.813  0.00  0.00    +0.000 A 
ATOM      5  C17 UNL     1     132.310 119.282 130.871  0.00  0.00    +0.000 A 
ATOM      6  C18 UNL     1     132.071 120.168 131.906  0.00  0.00    +0.000 A 
ATOM      7  C19 UNL     1     131.201 119.864 132.961  0.00  0.00    +0.000 A 
ENDROOT
BRANCH   1   9
ATOM      8  N1  UNL     1     129.876 117.393 135.012  0.00  0.00    +0.000 N 
ATOM      9  C6  UNL     1     129.625 118.253 133.948  0.00  0.00    +0.000 C 
ATOM     10  O1  UNL     1     128.499 118.770 133.792  0.00  0.00    +0.000 OA
ATOM     11  H6  UNL     1     130.859 116.975 135.042  0.00  0.00    +0.000 HD
BRANCH   8  16
ATOM     12  C1  UNL     1     126.018 115.774 138.899  0.00  0.00    +0.000 C 
ATOM     13  C2  UNL     1     127.028 116.202 137.904  0.00  0.00    +0.000 A 
ATOM     14  C3  UNL     1     127.885 117.217 138.209  0.00  0.00    +0.000 A 
ATOM     15  C4  UNL     1     128.837 117.605 137.245  0.00  0.00    +0.000 A 
ATOM     16  C5  UNL     1     128.946 117.014 136.014  0.00  0.00    +0.000 A 
ATOM     17  C21 UNL     1     128.043 115.968 135.735  0.00  0.00    +0.000 A 
ATOM     18  C22 UNL     1     127.102 115.581 136.682  0.00  0.00    +0.000 A 
BRANCH  17  19
ATOM     19  C23 UNL     1     128.062 115.231 134.489  0.00  0.00    +0.000 A 
ATOM     20  C24 UNL     1     129.039 114.353 134.106  0.00  0.00    +0.000 A 
ATOM     21  C25 UNL     1     129.016 113.679 132.885  0.00  0.00    +0.000 A 
ATOM     22  C26 UNL     1     127.976 113.889 132.010  0.00  0.00    +0.000 A 
ATOM     23  C27 UNL     1     126.979 114.774 132.381  0.00  0.00    +0.000 A 
ATOM     24  C28 UNL     1     127.009 115.436 133.589  0.00  0.00    +0.000 A 
ENDBRANCH  17  19
ENDBRANCH   8  16
ENDBRANCH   1   9
BRANCH   7  25
ATOM     25  C20 UNL     1     130.981 120.893 134.023  0.00  0.00    +0.000 C 
ATOM     26  F2  UNL     1     129.679 121.396 133.920  0.00  0.00    +0.000 F 
ATOM     27  F3  UNL     1     131.131 120.363 135.290  0.00  0.00    +0.000 F 
ATOM     28  F4  UNL     1     131.868 121.912 133.883  0.00  0.00    +0.000 F 
ENDBRANCH   7  25
BRANCH   4  29
ATOM     29  C10 UNL     1     131.928 117.036 129.775  0.00  0.00    +0.000 C 
BRANCH  29  30
ATOM     30  S1  UNL     1     133.547 116.771 129.219  0.00  0.00    +0.000 S 
ATOM     31  O2  UNL     1     134.469 117.755 129.926  0.00  0.00    +0.000 OA
ATOM     32  O3  UNL     1     133.661 117.106 127.747  0.00  0.00    +0.000 OA
BRANCH  30  33
ATOM     33  C11 UNL     1     134.080 115.145 129.513  0.00  0.00    +0.000 A 
ATOM     34  C12 UNL     1     135.380 114.764 129.671  0.00  0.00    +0.000 A 
ATOM     35  C13 UNL     1     135.758 113.437 129.896  0.00  0.00    +0.000 A 
ATOM     36  C14 UNL     1     134.795 112.451 129.967  0.00  0.00    +0.000 A 
ATOM     37  C15 UNL     1     133.480 112.810 129.812  0.00  0.00    +0.000 A 
ATOM     38  C16 UNL     1     133.133 114.116 129.593  0.00  0.00    +0.000 A 
ENDBRANCH  30  33
ENDBRANCH  29  30
ENDBRANCH   4  29
TORSDOF 7
ENDMDL
