MODEL 1
REMARK VINA RESULT:     -10.3      0.000      0.000
REMARK  Name = aganitha_data/bbio_mols_pdbqt/AGAN-407.pdb
REMARK  13 active torsions:
REMARK  status: ('A' for Active; 'I' for Inactive)
REMARK    1  A    between atoms: C1_1  and  N1_2
REMARK    2  A    between atoms: N1_2  and  C20_29
REMARK    3  A    between atoms: C2_3  and  C3_4
REMARK    4  A    between atoms: C3_4  and  C4_5
REMARK    5  A    between atoms: C4_5  and  C5_6
REMARK    6  A    between atoms: C8_10  and  S1_11
REMARK    7  A    between atoms: S1_11  and  N3_12
REMARK    8  A    between atoms: N4_23  and  C16_24
REMARK    9  A    between atoms: C16_24  and  C17_25
REMARK   10  A    between atoms: C17_25  and  C18_26
REMARK   11  A    between atoms: C18_26  and  C19_27
REMARK   12  A    between atoms: C20_29  and  C21_30
REMARK   13  A    between atoms: C25_36  and  N5_37
REMARK                            x       y       z     vdW  Elec       q    Type
REMARK                         _______ _______ _______ _____ _____    ______ ____
ROOT
ATOM      1  C5  UNL     1     131.371 117.752 131.751  0.00  0.00    +0.000 A 
ATOM      2  N2  UNL     1     132.208 117.418 130.626  0.00  0.00    +0.000 NA
ATOM      3  C6  UNL     1     132.002 116.143 130.337  0.00  0.00    +0.000 A 
ATOM      4  C7  UNL     1     132.590 115.372 129.362  0.00  0.00    +0.000 A 
ATOM      5  C8  UNL     1     132.225 114.012 129.289  0.00  0.00    +0.000 A 
ATOM      6  C13 UNL     1     131.349 113.514 130.147  0.00  0.00    +0.000 A 
ATOM      7  C14 UNL     1     130.721 114.264 131.143  0.00  0.00    +0.000 A 
ATOM      8  C15 UNL     1     131.102 115.633 131.195  0.00  0.00    +0.000 A 
ATOM      9  N4  UNL     1     130.744 116.654 132.034  0.00  0.00    +0.000 N 
ENDROOT
BRANCH   5  10
ATOM     10  S1  UNL     1     133.014 113.112 128.019  0.00  0.00    +0.000 S 
ATOM     11  O2  UNL     1     132.084 112.089 127.464  0.00  0.00    +0.000 OA
ATOM     12  O3  UNL     1     133.421 114.095 126.970  0.00  0.00    +0.000 OA
BRANCH  10  13
ATOM     13  N3  UNL     1     134.404 112.397 128.735  0.00  0.00    +0.000 NA
ATOM     14  C9  UNL     1     134.487 112.524 130.154  0.00  0.00    +0.000 C 
ATOM     15  C10 UNL     1     135.296 113.740 130.565  0.00  0.00    +0.000 C 
ATOM     16  O1  UNL     1     136.398 113.912 129.777  0.00  0.00    +0.000 OA
ATOM     17  C11 UNL     1     136.776 112.827 129.019  0.00  0.00    +0.000 C 
ATOM     18  C12 UNL     1     135.632 112.571 128.026  0.00  0.00    +0.000 C 
ENDBRANCH  10  13
ENDBRANCH   5  10
BRANCH   1  19
ATOM     19  C4  UNL     1     131.572 119.082 132.177  0.00  0.00    +0.000 C 
BRANCH  19  20
ATOM     20  C3  UNL     1     130.778 120.259 132.111  0.00  0.00    +0.000 C 
BRANCH  20  23
ATOM     21  C1  UNL     1     131.567 121.585 134.656  0.00  0.00    +0.000 C 
ATOM     22  N1  UNL     1     130.200 120.822 134.592  0.00  0.00    +0.000 N 
ATOM     23  C2  UNL     1     130.001 120.300 133.391  0.00  0.00    +0.000 C 
ATOM     24  O4  UNL     1     128.837 119.622 133.212  0.00  0.00    +0.000 OA
BRANCH  22  25
ATOM     25  C20 UNL     1     129.662 120.752 135.908  0.00  0.00    +0.000 C 
BRANCH  25  26
ATOM     26  C21 UNL     1     129.256 119.460 136.486  0.00  0.00    +0.000 A 
ATOM     27  C22 UNL     1     130.133 118.379 136.408  0.00  0.00    +0.000 A 
ATOM     28  F1  UNL     1     131.454 118.640 136.095  0.00  0.00    +0.000 F 
ATOM     29  C23 UNL     1     129.728 117.110 136.669  0.00  0.00    +0.000 A 
ATOM     30  C24 UNL     1     128.423 116.830 137.024  0.00  0.00    +0.000 A 
ATOM     31 CL1  UNL     1     127.874 115.217 137.380  0.00  0.00    +0.000 Cl
ATOM     32  C25 UNL     1     127.510 117.850 137.117  0.00  0.00    +0.000 A 
ATOM     33  C26 UNL     1     127.936 119.170 136.851  0.00  0.00    +0.000 A 
BRANCH  32  34
ATOM     34  N5  UNL     1     126.118 117.572 137.378  0.00  0.00    +0.000 N 
ATOM     35  H31 UNL     1     125.892 116.934 138.165  0.00  0.00    +0.000 HD
ATOM     36  H32 UNL     1     125.381 118.000 136.811  0.00  0.00    +0.000 HD
ENDBRANCH  32  34
ENDBRANCH  25  26
ENDBRANCH  22  25
ENDBRANCH  20  23
ENDBRANCH  19  20
ENDBRANCH   1  19
BRANCH   9  37
ATOM     37  C16 UNL     1     129.684 116.471 133.025  0.00  0.00    +0.000 C 
BRANCH  37  38
ATOM     38  C17 UNL     1     128.348 116.585 132.274  0.00  0.00    +0.000 C 
BRANCH  38  39
ATOM     39  C18 UNL     1     127.316 115.596 132.513  0.00  0.00    +0.000 C 
ATOM     40  C19 UNL     1     127.104 114.475 131.553  0.00  0.00    +0.000 C 
ENDBRANCH  38  39
ENDBRANCH  37  38
ENDBRANCH   9  37
TORSDOF 11
ENDMDL
MODEL 2
REMARK VINA RESULT:      -9.7      3.151      5.693
REMARK  Name = aganitha_data/bbio_mols_pdbqt/AGAN-407.pdb
REMARK  13 active torsions:
REMARK  status: ('A' for Active; 'I' for Inactive)
REMARK    1  A    between atoms: C1_1  and  N1_2
REMARK    2  A    between atoms: N1_2  and  C20_29
REMARK    3  A    between atoms: C2_3  and  C3_4
REMARK    4  A    between atoms: C3_4  and  C4_5
REMARK    5  A    between atoms: C4_5  and  C5_6
REMARK    6  A    between atoms: C8_10  and  S1_11
REMARK    7  A    between atoms: S1_11  and  N3_12
REMARK    8  A    between atoms: N4_23  and  C16_24
REMARK    9  A    between atoms: C16_24  and  C17_25
REMARK   10  A    between atoms: C17_25  and  C18_26
REMARK   11  A    between atoms: C18_26  and  C19_27
REMARK   12  A    between atoms: C20_29  and  C21_30
REMARK   13  A    between atoms: C25_36  and  N5_37
REMARK                            x       y       z     vdW  Elec       q    Type
REMARK                         _______ _______ _______ _____ _____    ______ ____
ROOT
ATOM      1  C5  UNL     1     132.512 118.227 130.194  0.00  0.00    +0.000 A 
ATOM      2  N2  UNL     1     131.489 118.069 131.198  0.00  0.00    +0.000 NA
ATOM      3  C6  UNL     1     131.177 116.785 131.254  0.00  0.00    +0.000 A 
ATOM      4  C7  UNL     1     130.240 116.158 132.040  0.00  0.00    +0.000 A 
ATOM      5  C8  UNL     1     130.066 114.768 131.876  0.00  0.00    +0.000 A 
ATOM      6  C13 UNL     1     130.788 114.112 130.983  0.00  0.00    +0.000 A 
ATOM      7  C14 UNL     1     131.757 114.707 130.174  0.00  0.00    +0.000 A 
ATOM      8  C15 UNL     1     131.916 116.108 130.358  0.00  0.00    +0.000 A 
ATOM      9  N4  UNL     1     132.718 117.030 129.741  0.00  0.00    +0.000 N 
ENDROOT
BRANCH   5  10
ATOM     10  S1  UNL     1     128.863 114.055 132.919  0.00  0.00    +0.000 S 
ATOM     11  O2  UNL     1     127.879 113.282 132.111  0.00  0.00    +0.000 OA
ATOM     12  O3  UNL     1     129.585 113.166 133.881  0.00  0.00    +0.000 OA
BRANCH  10  13
ATOM     13  N3  UNL     1     128.123 115.361 133.757  0.00  0.00    +0.000 NA
ATOM     14  C9  UNL     1     128.928 115.963 134.770  0.00  0.00    +0.000 C 
ATOM     15  C10 UNL     1     128.662 115.357 136.136  0.00  0.00    +0.000 C 
ATOM     16  O1  UNL     1     127.333 115.120 136.341  0.00  0.00    +0.000 OA
ATOM     17  C11 UNL     1     126.465 115.758 135.484  0.00  0.00    +0.000 C 
ATOM     18  C12 UNL     1     126.743 115.193 134.083  0.00  0.00    +0.000 C 
ENDBRANCH  10  13
ENDBRANCH   5  10
BRANCH   1  19
ATOM     19  C4  UNL     1     132.866 119.581 130.013  0.00  0.00    +0.000 C 
BRANCH  19  20
ATOM     20  C3  UNL     1     132.183 120.807 130.240  0.00  0.00    +0.000 C 
BRANCH  20  23
ATOM     21  C1  UNL     1     130.122 120.146 132.284  0.00  0.00    +0.000 C 
ATOM     22  N1  UNL     1     131.453 120.833 132.745  0.00  0.00    +0.000 N 
ATOM     23  C2  UNL     1     132.259 121.049 131.716  0.00  0.00    +0.000 C 
ATOM     24  O4  UNL     1     133.454 121.632 131.998  0.00  0.00    +0.000 OA
BRANCH  22  25
ATOM     25  C20 UNL     1     131.319 121.200 134.114  0.00  0.00    +0.000 C 
BRANCH  25  26
ATOM     26  C21 UNL     1     130.440 120.435 135.015  0.00  0.00    +0.000 A 
ATOM     27  C22 UNL     1     129.250 121.016 135.450  0.00  0.00    +0.000 A 
ATOM     28  F1  UNL     1     128.788 122.128 134.771  0.00  0.00    +0.000 F 
ATOM     29  C23 UNL     1     128.533 120.493 136.478  0.00  0.00    +0.000 A 
ATOM     30  C24 UNL     1     128.954 119.358 137.143  0.00  0.00    +0.000 A 
ATOM     31 CL1  UNL     1     128.054 118.652 138.455  0.00  0.00    +0.000 Cl
ATOM     32  C25 UNL     1     130.120 118.740 136.764  0.00  0.00    +0.000 A 
ATOM     33  C26 UNL     1     130.859 119.283 135.691  0.00  0.00    +0.000 A 
BRANCH  32  34
ATOM     34  N5  UNL     1     130.638 117.620 137.513  0.00  0.00    +0.000 N 
ATOM     35  H31 UNL     1     130.351 116.667 137.217  0.00  0.00    +0.000 HD
ATOM     36  H32 UNL     1     131.274 117.763 138.302  0.00  0.00    +0.000 HD
ENDBRANCH  32  34
ENDBRANCH  25  26
ENDBRANCH  22  25
ENDBRANCH  20  23
ENDBRANCH  19  20
ENDBRANCH   1  19
BRANCH   9  37
ATOM     37  C16 UNL     1     133.741 116.610 128.784  0.00  0.00    +0.000 C 
BRANCH  37  38
ATOM     38  C17 UNL     1     135.103 116.887 129.438  0.00  0.00    +0.000 C 
BRANCH  38  39
ATOM     39  C18 UNL     1     135.930 115.769 129.849  0.00  0.00    +0.000 C 
ATOM     40  C19 UNL     1     135.490 114.367 129.596  0.00  0.00    +0.000 C 
ENDBRANCH  38  39
ENDBRANCH  37  38
ENDBRANCH   9  37
TORSDOF 11
ENDMDL
MODEL 3
REMARK VINA RESULT:      -9.7      1.195      1.458
REMARK  Name = aganitha_data/bbio_mols_pdbqt/AGAN-407.pdb
REMARK  13 active torsions:
REMARK  status: ('A' for Active; 'I' for Inactive)
REMARK    1  A    between atoms: C1_1  and  N1_2
REMARK    2  A    between atoms: N1_2  and  C20_29
REMARK    3  A    between atoms: C2_3  and  C3_4
REMARK    4  A    between atoms: C3_4  and  C4_5
REMARK    5  A    between atoms: C4_5  and  C5_6
REMARK    6  A    between atoms: C8_10  and  S1_11
REMARK    7  A    between atoms: S1_11  and  N3_12
REMARK    8  A    between atoms: N4_23  and  C16_24
REMARK    9  A    between atoms: C16_24  and  C17_25
REMARK   10  A    between atoms: C17_25  and  C18_26
REMARK   11  A    between atoms: C18_26  and  C19_27
REMARK   12  A    between atoms: C20_29  and  C21_30
REMARK   13  A    between atoms: C25_36  and  N5_37
REMARK                            x       y       z     vdW  Elec       q    Type
REMARK                         _______ _______ _______ _____ _____    ______ ____
ROOT
ATOM      1  C5  UNL     1     131.571 117.974 131.435  0.00  0.00    +0.000 A 
ATOM      2  N2  UNL     1     132.376 117.548 130.317  0.00  0.00    +0.000 NA
ATOM      3  C6  UNL     1     132.156 116.257 130.133  0.00  0.00    +0.000 A 
ATOM      4  C7  UNL     1     132.714 115.409 129.206  0.00  0.00    +0.000 A 
ATOM      5  C8  UNL     1     132.342 114.049 129.248  0.00  0.00    +0.000 A 
ATOM      6  C13 UNL     1     131.487 113.626 130.164  0.00  0.00    +0.000 A 
ATOM      7  C14 UNL     1     130.889 114.454 131.115  0.00  0.00    +0.000 A 
ATOM      8  C15 UNL     1     131.277 115.821 131.052  0.00  0.00    +0.000 A 
ATOM      9  N4  UNL     1     130.946 116.905 131.818  0.00  0.00    +0.000 N 
ENDROOT
BRANCH   5  10
ATOM     10  S1  UNL     1     133.092 113.049 128.031  0.00  0.00    +0.000 S 
ATOM     11  O2  UNL     1     132.140 112.000 127.573  0.00  0.00    +0.000 OA
ATOM     12  O3  UNL     1     133.485 113.948 126.903  0.00  0.00    +0.000 OA
BRANCH  10  13
ATOM     13  N3  UNL     1     134.491 112.372 128.767  0.00  0.00    +0.000 NA
ATOM     14  C9  UNL     1     134.588 112.570 130.177  0.00  0.00    +0.000 C 
ATOM     15  C10 UNL     1     135.399 113.806 130.519  0.00  0.00    +0.000 C 
ATOM     16  O1  UNL     1     136.493 113.940 129.713  0.00  0.00    +0.000 OA
ATOM     17  C11 UNL     1     136.864 112.820 129.006  0.00  0.00    +0.000 C 
ATOM     18  C12 UNL     1     135.711 112.514 128.038  0.00  0.00    +0.000 C 
ENDBRANCH  10  13
ENDBRANCH   5  10
BRANCH   1  19
ATOM     19  C4  UNL     1     131.789 119.331 131.752  0.00  0.00    +0.000 C 
BRANCH  19  20
ATOM     20  C3  UNL     1     130.926 120.453 131.890  0.00  0.00    +0.000 C 
BRANCH  20  23
ATOM     21  C1  UNL     1     132.034 121.796 134.304  0.00  0.00    +0.000 C 
ATOM     22  N1  UNL     1     130.756 120.901 134.455  0.00  0.00    +0.000 N 
ATOM     23  C2  UNL     1     130.393 120.388 133.288  0.00  0.00    +0.000 C 
ATOM     24  O4  UNL     1     129.285 119.601 133.293  0.00  0.00    +0.000 OA
BRANCH  22  25
ATOM     25  C20 UNL     1     130.474 120.749 135.842  0.00  0.00    +0.000 C 
BRANCH  25  26
ATOM     26  C21 UNL     1     129.751 119.565 136.336  0.00  0.00    +0.000 A 
ATOM     27  C22 UNL     1     128.435 119.711 136.773  0.00  0.00    +0.000 A 
ATOM     28  F1  UNL     1     127.762 120.866 136.422  0.00  0.00    +0.000 F 
ATOM     29  C23 UNL     1     127.806 118.739 137.483  0.00  0.00    +0.000 A 
ATOM     30  C24 UNL     1     128.445 117.559 137.809  0.00  0.00    +0.000 A 
ATOM     31 CL1  UNL     1     127.665 116.287 138.706  0.00  0.00    +0.000 Cl
ATOM     32  C25 UNL     1     129.743 117.355 137.411  0.00  0.00    +0.000 A 
ATOM     33  C26 UNL     1     130.391 118.365 136.666  0.00  0.00    +0.000 A 
BRANCH  32  34
ATOM     34  N5  UNL     1     130.467 116.180 137.832  0.00  0.00    +0.000 N 
ATOM     35  H31 UNL     1     130.303 115.831 138.795  0.00  0.00    +0.000 HD
ATOM     36  H32 UNL     1     131.113 115.704 137.195  0.00  0.00    +0.000 HD
ENDBRANCH  32  34
ENDBRANCH  25  26
ENDBRANCH  22  25
ENDBRANCH  20  23
ENDBRANCH  19  20
ENDBRANCH   1  19
BRANCH   9  37
ATOM     37  C16 UNL     1     129.912 116.806 132.848  0.00  0.00    +0.000 C 
BRANCH  37  38
ATOM     38  C17 UNL     1     128.597 116.471 132.127  0.00  0.00    +0.000 C 
BRANCH  38  39
ATOM     39  C18 UNL     1     127.479 115.963 132.897  0.00  0.00    +0.000 C 
ATOM     40  C19 UNL     1     127.660 115.558 134.320  0.00  0.00    +0.000 C 
ENDBRANCH  38  39
ENDBRANCH  37  38
ENDBRANCH   9  37
TORSDOF 11
ENDMDL
MODEL 4
REMARK VINA RESULT:      -9.7      1.307      1.511
REMARK  Name = aganitha_data/bbio_mols_pdbqt/AGAN-407.pdb
REMARK  13 active torsions:
REMARK  status: ('A' for Active; 'I' for Inactive)
REMARK    1  A    between atoms: C1_1  and  N1_2
REMARK    2  A    between atoms: N1_2  and  C20_29
REMARK    3  A    between atoms: C2_3  and  C3_4
REMARK    4  A    between atoms: C3_4  and  C4_5
REMARK    5  A    between atoms: C4_5  and  C5_6
REMARK    6  A    between atoms: C8_10  and  S1_11
REMARK    7  A    between atoms: S1_11  and  N3_12
REMARK    8  A    between atoms: N4_23  and  C16_24
REMARK    9  A    between atoms: C16_24  and  C17_25
REMARK   10  A    between atoms: C17_25  and  C18_26
REMARK   11  A    between atoms: C18_26  and  C19_27
REMARK   12  A    between atoms: C20_29  and  C21_30
REMARK   13  A    between atoms: C25_36  and  N5_37
REMARK                            x       y       z     vdW  Elec       q    Type
REMARK                         _______ _______ _______ _____ _____    ______ ____
ROOT
ATOM      1  C5  UNL     1     130.508 118.330 131.992  0.00  0.00    +0.000 A 
ATOM      2  N2  UNL     1     131.536 118.015 131.033  0.00  0.00    +0.000 NA
ATOM      3  C6  UNL     1     131.536 116.703 130.860  0.00  0.00    +0.000 A 
ATOM      4  C7  UNL     1     132.352 115.937 130.063  0.00  0.00    +0.000 A 
ATOM      5  C8  UNL     1     132.176 114.538 130.090  0.00  0.00    +0.000 A 
ATOM      6  C13 UNL     1     131.252 114.003 130.872  0.00  0.00    +0.000 A 
ATOM      7  C14 UNL     1     130.395 114.744 131.686  0.00  0.00    +0.000 A 
ATOM      8  C15 UNL     1     130.590 116.152 131.640  0.00  0.00    +0.000 A 
ATOM      9  N4  UNL     1     129.987 117.185 132.307  0.00  0.00    +0.000 N 
ENDROOT
BRANCH   5  10
ATOM     10  S1  UNL     1     133.249 113.646 129.043  0.00  0.00    +0.000 S 
ATOM     11  O2  UNL     1     132.637 112.338 128.677  0.00  0.00    +0.000 OA
ATOM     12  O3  UNL     1     133.483 114.488 127.831  0.00  0.00    +0.000 OA
BRANCH  10  13
ATOM     13  N3  UNL     1     134.714 113.446 129.921  0.00  0.00    +0.000 NA
ATOM     14  C9  UNL     1     135.821 114.200 129.427  0.00  0.00    +0.000 C 
ATOM     15  C10 UNL     1     136.666 113.393 128.459  0.00  0.00    +0.000 C 
ATOM     16  O1  UNL     1     136.822 112.100 128.870  0.00  0.00    +0.000 OA
ATOM     17  C11 UNL     1     136.516 111.842 130.186  0.00  0.00    +0.000 C 
ATOM     18  C12 UNL     1     135.013 112.116 130.345  0.00  0.00    +0.000 C 
ENDBRANCH  10  13
ENDBRANCH   5  10
BRANCH   1  19
ATOM     19  C4  UNL     1     130.475 119.707 132.294  0.00  0.00    +0.000 C 
BRANCH  19  20
ATOM     20  C3  UNL     1     131.172 120.518 133.231  0.00  0.00    +0.000 C 
BRANCH  20  23
ATOM     21  C1  UNL     1     128.844 121.689 134.670  0.00  0.00    +0.000 C 
ATOM     22  N1  UNL     1     129.656 120.536 135.354  0.00  0.00    +0.000 N 
ATOM     23  C2  UNL     1     130.649 120.127 134.578  0.00  0.00    +0.000 C 
ATOM     24  O4  UNL     1     131.418 119.117 135.064  0.00  0.00    +0.000 OA
BRANCH  22  25
ATOM     25  C20 UNL     1     129.202 120.401 136.697  0.00  0.00    +0.000 C 
BRANCH  25  26
ATOM     26  C21 UNL     1     128.656 119.122 137.181  0.00  0.00    +0.000 A 
ATOM     27  C22 UNL     1     129.409 118.361 138.075  0.00  0.00    +0.000 A 
ATOM     28  F1  UNL     1     130.466 118.978 138.717  0.00  0.00    +0.000 F 
ATOM     29  C23 UNL     1     129.099 117.068 138.348  0.00  0.00    +0.000 A 
ATOM     30  C24 UNL     1     128.023 116.444 137.750  0.00  0.00    +0.000 A 
ATOM     31 CL1  UNL     1     127.589 114.792 138.088  0.00  0.00    +0.000 Cl
ATOM     32  C25 UNL     1     127.243 117.138 136.858  0.00  0.00    +0.000 A 
ATOM     33  C26 UNL     1     127.564 118.485 136.581  0.00  0.00    +0.000 A 
BRANCH  32  34
ATOM     34  N5  UNL     1     126.181 116.478 136.137  0.00  0.00    +0.000 N 
ATOM     35  H31 UNL     1     126.446 115.846 135.358  0.00  0.00    +0.000 HD
ATOM     36  H32 UNL     1     125.201 116.623 136.396  0.00  0.00    +0.000 HD
ENDBRANCH  32  34
ENDBRANCH  25  26
ENDBRANCH  22  25
ENDBRANCH  20  23
ENDBRANCH  19  20
ENDBRANCH   1  19
BRANCH   9  37
ATOM     37  C16 UNL     1     128.824 116.946 133.161  0.00  0.00    +0.000 C 
BRANCH  37  38
ATOM     38  C17 UNL     1     127.707 116.410 132.252  0.00  0.00    +0.000 C 
BRANCH  38  39
ATOM     39  C18 UNL     1     126.825 115.374 132.752  0.00  0.00    +0.000 C 
ATOM     40  C19 UNL     1     126.529 114.168 131.928  0.00  0.00    +0.000 C 
ENDBRANCH  38  39
ENDBRANCH  37  38
ENDBRANCH   9  37
TORSDOF 11
ENDMDL
MODEL 5
REMARK VINA RESULT:      -9.7      1.455      1.787
REMARK  Name = aganitha_data/bbio_mols_pdbqt/AGAN-407.pdb
REMARK  13 active torsions:
REMARK  status: ('A' for Active; 'I' for Inactive)
REMARK    1  A    between atoms: C1_1  and  N1_2
REMARK    2  A    between atoms: N1_2  and  C20_29
REMARK    3  A    between atoms: C2_3  and  C3_4
REMARK    4  A    between atoms: C3_4  and  C4_5
REMARK    5  A    between atoms: C4_5  and  C5_6
REMARK    6  A    between atoms: C8_10  and  S1_11
REMARK    7  A    between atoms: S1_11  and  N3_12
REMARK    8  A    between atoms: N4_23  and  C16_24
REMARK    9  A    between atoms: C16_24  and  C17_25
REMARK   10  A    between atoms: C17_25  and  C18_26
REMARK   11  A    between atoms: C18_26  and  C19_27
REMARK   12  A    between atoms: C20_29  and  C21_30
REMARK   13  A    between atoms: C25_36  and  N5_37
REMARK                            x       y       z     vdW  Elec       q    Type
REMARK                         _______ _______ _______ _____ _____    ______ ____
ROOT
ATOM      1  C5  UNL     1     131.492 118.358 131.373  0.00  0.00    +0.000 A 
ATOM      2  N2  UNL     1     132.523 117.935 130.459  0.00  0.00    +0.000 NA
ATOM      3  C6  UNL     1     132.311 116.659 130.177  0.00  0.00    +0.000 A 
ATOM      4  C7  UNL     1     133.044 115.819 129.373  0.00  0.00    +0.000 A 
ATOM      5  C8  UNL     1     132.629 114.475 129.273  0.00  0.00    +0.000 A 
ATOM      6  C13 UNL     1     131.569 114.058 129.946  0.00  0.00    +0.000 A 
ATOM      7  C14 UNL     1     130.792 114.880 130.763  0.00  0.00    +0.000 A 
ATOM      8  C15 UNL     1     131.228 116.231 130.847  0.00  0.00    +0.000 A 
ATOM      9  N4  UNL     1     130.761 117.304 131.557  0.00  0.00    +0.000 N 
ENDROOT
BRANCH   5  10
ATOM     10  S1  UNL     1     133.611 113.484 128.226  0.00  0.00    +0.000 S 
ATOM     11  O2  UNL     1     133.221 112.053 128.362  0.00  0.00    +0.000 OA
ATOM     12  O3  UNL     1     133.395 113.969 126.829  0.00  0.00    +0.000 OA
BRANCH  10  13
ATOM     13  N3  UNL     1     135.241 113.754 128.704  0.00  0.00    +0.000 NA
ATOM     14  C9  UNL     1     136.092 112.612 128.621  0.00  0.00    +0.000 C 
ATOM     15  C10 UNL     1     136.166 111.866 129.940  0.00  0.00    +0.000 C 
ATOM     16  O1  UNL     1     136.232 112.716 131.007  0.00  0.00    +0.000 OA
ATOM     17  C11 UNL     1     136.564 114.021 130.721  0.00  0.00    +0.000 C 
ATOM     18  C12 UNL     1     135.426 114.580 129.855  0.00  0.00    +0.000 C 
ENDBRANCH  10  13
ENDBRANCH   5  10
BRANCH   1  19
ATOM     19  C4  UNL     1     131.673 119.695 131.786  0.00  0.00    +0.000 C 
BRANCH  19  20
ATOM     20  C3  UNL     1     130.776 120.767 132.043  0.00  0.00    +0.000 C 
BRANCH  20  23
ATOM     21  C1  UNL     1     131.952 121.959 134.504  0.00  0.00    +0.000 C 
ATOM     22  N1  UNL     1     130.708 121.015 134.639  0.00  0.00    +0.000 N 
ATOM     23  C2  UNL     1     130.309 120.580 133.453  0.00  0.00    +0.000 C 
ATOM     24  O4  UNL     1     129.225 119.760 133.444  0.00  0.00    +0.000 OA
BRANCH  22  25
ATOM     25  C20 UNL     1     130.493 120.749 136.021  0.00  0.00    +0.000 C 
BRANCH  25  26
ATOM     26  C21 UNL     1     129.756 119.548 136.450  0.00  0.00    +0.000 A 
ATOM     27  C22 UNL     1     128.418 119.674 136.821  0.00  0.00    +0.000 A 
ATOM     28  F1  UNL     1     127.754 120.832 136.464  0.00  0.00    +0.000 F 
ATOM     29  C23 UNL     1     127.762 118.681 137.475  0.00  0.00    +0.000 A 
ATOM     30  C24 UNL     1     128.394 117.498 137.806  0.00  0.00    +0.000 A 
ATOM     31 CL1  UNL     1     127.580 116.199 138.631  0.00  0.00    +0.000 Cl
ATOM     32  C25 UNL     1     129.712 117.314 137.470  0.00  0.00    +0.000 A 
ATOM     33  C26 UNL     1     130.389 118.346 136.784  0.00  0.00    +0.000 A 
BRANCH  32  34
ATOM     34  N5  UNL     1     130.425 116.135 137.900  0.00  0.00    +0.000 N 
ATOM     35  H31 UNL     1     130.305 115.268 137.343  0.00  0.00    +0.000 HD
ATOM     36  H32 UNL     1     131.035 116.159 138.722  0.00  0.00    +0.000 HD
ENDBRANCH  32  34
ENDBRANCH  25  26
ENDBRANCH  22  25
ENDBRANCH  20  23
ENDBRANCH  19  20
ENDBRANCH   1  19
BRANCH   9  37
ATOM     37  C16 UNL     1     129.511 117.214 132.312  0.00  0.00    +0.000 C 
BRANCH  37  38
ATOM     38  C17 UNL     1     129.763 116.245 133.477  0.00  0.00    +0.000 C 
BRANCH  38  39
ATOM     39  C18 UNL     1     128.790 115.208 133.757  0.00  0.00    +0.000 C 
ATOM     40  C19 UNL     1     129.174 113.770 133.690  0.00  0.00    +0.000 C 
ENDBRANCH  38  39
ENDBRANCH  37  38
ENDBRANCH   9  37
TORSDOF 11
ENDMDL
MODEL 6
REMARK VINA RESULT:      -9.5      0.964      1.170
REMARK  Name = aganitha_data/bbio_mols_pdbqt/AGAN-407.pdb
REMARK  13 active torsions:
REMARK  status: ('A' for Active; 'I' for Inactive)
REMARK    1  A    between atoms: C1_1  and  N1_2
REMARK    2  A    between atoms: N1_2  and  C20_29
REMARK    3  A    between atoms: C2_3  and  C3_4
REMARK    4  A    between atoms: C3_4  and  C4_5
REMARK    5  A    between atoms: C4_5  and  C5_6
REMARK    6  A    between atoms: C8_10  and  S1_11
REMARK    7  A    between atoms: S1_11  and  N3_12
REMARK    8  A    between atoms: N4_23  and  C16_24
REMARK    9  A    between atoms: C16_24  and  C17_25
REMARK   10  A    between atoms: C17_25  and  C18_26
REMARK   11  A    between atoms: C18_26  and  C19_27
REMARK   12  A    between atoms: C20_29  and  C21_30
REMARK   13  A    between atoms: C25_36  and  N5_37
REMARK                            x       y       z     vdW  Elec       q    Type
REMARK                         _______ _______ _______ _____ _____    ______ ____
ROOT
ATOM      1  C5  UNL     1     130.840 118.095 131.559  0.00  0.00    +0.000 A 
ATOM      2  N2  UNL     1     131.747 117.832 130.470  0.00  0.00    +0.000 NA
ATOM      3  C6  UNL     1     131.835 116.519 130.330  0.00  0.00    +0.000 A 
ATOM      4  C7  UNL     1     132.595 115.795 129.442  0.00  0.00    +0.000 A 
ATOM      5  C8  UNL     1     132.545 114.388 129.527  0.00  0.00    +0.000 A 
ATOM      6  C13 UNL     1     131.789 113.807 130.445  0.00  0.00    +0.000 A 
ATOM      7  C14 UNL     1     130.995 114.504 131.356  0.00  0.00    +0.000 A 
ATOM      8  C15 UNL     1     131.059 115.921 131.250  0.00  0.00    +0.000 A 
ATOM      9  N4  UNL     1     130.469 116.923 131.971  0.00  0.00    +0.000 N 
ENDROOT
BRANCH   5  10
ATOM     10  S1  UNL     1     133.534 113.550 128.359  0.00  0.00    +0.000 S 
ATOM     11  O2  UNL     1     133.211 112.096 128.365  0.00  0.00    +0.000 OA
ATOM     12  O3  UNL     1     133.249 114.159 127.024  0.00  0.00    +0.000 OA
BRANCH  10  13
ATOM     13  N3  UNL     1     135.165 113.849 128.813  0.00  0.00    +0.000 NA
ATOM     14  C9  UNL     1     136.054 112.747 128.635  0.00  0.00    +0.000 C 
ATOM     15  C10 UNL     1     136.189 111.922 129.902  0.00  0.00    +0.000 C 
ATOM     16  O1  UNL     1     136.254 112.705 131.019  0.00  0.00    +0.000 OA
ATOM     17  C11 UNL     1     136.532 114.036 130.809  0.00  0.00    +0.000 C 
ATOM     18  C12 UNL     1     135.352 114.607 130.009  0.00  0.00    +0.000 C 
ENDBRANCH  10  13
ENDBRANCH   5  10
BRANCH   1  19
ATOM     19  C4  UNL     1     130.731 119.475 131.830  0.00  0.00    +0.000 C 
BRANCH  19  20
ATOM     20  C3  UNL     1     131.231 120.309 132.867  0.00  0.00    +0.000 C 
BRANCH  20  23
ATOM     21  C1  UNL     1     131.413 121.425 135.621  0.00  0.00    +0.000 C 
ATOM     22  N1  UNL     1     130.044 120.843 135.128  0.00  0.00    +0.000 N 
ATOM     23  C2  UNL     1     130.136 120.397 133.884  0.00  0.00    +0.000 C 
ATOM     24  O4  UNL     1     129.001 119.878 133.344  0.00  0.00    +0.000 OA
BRANCH  22  25
ATOM     25  C20 UNL     1     129.153 120.788 136.237  0.00  0.00    +0.000 C 
BRANCH  25  26
ATOM     26  C21 UNL     1     128.808 119.501 136.862  0.00  0.00    +0.000 A 
ATOM     27  C22 UNL     1     129.734 118.890 137.707  0.00  0.00    +0.000 A 
ATOM     28  F1  UNL     1     130.781 119.658 138.180  0.00  0.00    +0.000 F 
ATOM     29  C23 UNL     1     129.601 117.596 138.097  0.00  0.00    +0.000 A 
ATOM     30  C24 UNL     1     128.540 116.822 137.670  0.00  0.00    +0.000 A 
ATOM     31 CL1  UNL     1     128.330 115.165 138.161  0.00  0.00    +0.000 Cl
ATOM     32  C25 UNL     1     127.595 117.364 136.835  0.00  0.00    +0.000 A 
ATOM     33  C26 UNL     1     127.732 118.712 136.437  0.00  0.00    +0.000 A 
BRANCH  32  34
ATOM     34  N5  UNL     1     126.538 116.547 136.288  0.00  0.00    +0.000 N 
ATOM     35  H31 UNL     1     125.591 116.965 136.216  0.00  0.00    +0.000 HD
ATOM     36  H32 UNL     1     126.723 115.591 135.972  0.00  0.00    +0.000 HD
ENDBRANCH  32  34
ENDBRANCH  25  26
ENDBRANCH  22  25
ENDBRANCH  20  23
ENDBRANCH  19  20
ENDBRANCH   1  19
BRANCH   9  37
ATOM     37  C16 UNL     1     129.462 116.620 132.988  0.00  0.00    +0.000 C 
BRANCH  37  38
ATOM     38  C17 UNL     1     128.107 116.555 132.266  0.00  0.00    +0.000 C 
BRANCH  38  39
ATOM     39  C18 UNL     1     127.165 115.513 132.624  0.00  0.00    +0.000 C 
ATOM     40  C19 UNL     1     127.027 114.293 131.779  0.00  0.00    +0.000 C 
ENDBRANCH  38  39
ENDBRANCH  37  38
ENDBRANCH   9  37
TORSDOF 11
ENDMDL
MODEL 7
REMARK VINA RESULT:      -9.3      0.939      1.044
REMARK  Name = aganitha_data/bbio_mols_pdbqt/AGAN-407.pdb
REMARK  13 active torsions:
REMARK  status: ('A' for Active; 'I' for Inactive)
REMARK    1  A    between atoms: C1_1  and  N1_2
REMARK    2  A    between atoms: N1_2  and  C20_29
REMARK    3  A    between atoms: C2_3  and  C3_4
REMARK    4  A    between atoms: C3_4  and  C4_5
REMARK    5  A    between atoms: C4_5  and  C5_6
REMARK    6  A    between atoms: C8_10  and  S1_11
REMARK    7  A    between atoms: S1_11  and  N3_12
REMARK    8  A    between atoms: N4_23  and  C16_24
REMARK    9  A    between atoms: C16_24  and  C17_25
REMARK   10  A    between atoms: C17_25  and  C18_26
REMARK   11  A    between atoms: C18_26  and  C19_27
REMARK   12  A    between atoms: C20_29  and  C21_30
REMARK   13  A    between atoms: C25_36  and  N5_37
REMARK                            x       y       z     vdW  Elec       q    Type
REMARK                         _______ _______ _______ _____ _____    ______ ____
ROOT
ATOM      1  C5  UNL     1     130.878 117.762 131.815  0.00  0.00    +0.000 A 
ATOM      2  N2  UNL     1     131.995 117.368 130.995  0.00  0.00    +0.000 NA
ATOM      3  C6  UNL     1     131.707 116.191 130.463  0.00  0.00    +0.000 A 
ATOM      4  C7  UNL     1     132.473 115.407 129.633  0.00  0.00    +0.000 A 
ATOM      5  C8  UNL     1     131.949 114.159 129.237  0.00  0.00    +0.000 A 
ATOM      6  C13 UNL     1     130.759 113.774 129.669  0.00  0.00    +0.000 A 
ATOM      7  C14 UNL     1     129.945 114.543 130.501  0.00  0.00    +0.000 A 
ATOM      8  C15 UNL     1     130.493 115.798 130.886  0.00  0.00    +0.000 A 
ATOM      9  N4  UNL     1     130.026 116.792 131.703  0.00  0.00    +0.000 N 
ENDROOT
BRANCH   5  10
ATOM     10  S1  UNL     1     132.984 113.235 128.180  0.00  0.00    +0.000 S 
ATOM     11  O2  UNL     1     132.270 112.020 127.698  0.00  0.00    +0.000 OA
ATOM     12  O3  UNL     1     133.357 114.127 127.039  0.00  0.00    +0.000 OA
BRANCH  10  13
ATOM     13  N3  UNL     1     134.378 112.839 129.104  0.00  0.00    +0.000 NA
ATOM     14  C9  UNL     1     134.666 113.734 130.178  0.00  0.00    +0.000 C 
ATOM     15  C10 UNL     1     135.644 114.818 129.763  0.00  0.00    +0.000 C 
ATOM     16  O1  UNL     1     136.640 114.330 128.967  0.00  0.00    +0.000 OA
ATOM     17  C11 UNL     1     136.798 112.963 128.963  0.00  0.00    +0.000 C 
ATOM     18  C12 UNL     1     135.510 112.378 128.364  0.00  0.00    +0.000 C 
ENDBRANCH  10  13
ENDBRANCH   5  10
BRANCH   1  19
ATOM     19  C4  UNL     1     131.121 118.982 132.482  0.00  0.00    +0.000 C 
BRANCH  19  20
ATOM     20  C3  UNL     1     130.563 120.285 132.368  0.00  0.00    +0.000 C 
BRANCH  20  23
ATOM     21  C1  UNL     1     131.246 121.534 134.983  0.00  0.00    +0.000 C 
ATOM     22  N1  UNL     1     129.803 120.960 134.771  0.00  0.00    +0.000 N 
ATOM     23  C2  UNL     1     129.666 120.450 133.556  0.00  0.00    +0.000 C 
ATOM     24  O4  UNL     1     128.447 119.931 133.252  0.00  0.00    +0.000 OA
BRANCH  22  25
ATOM     25  C20 UNL     1     129.121 120.983 136.021  0.00  0.00    +0.000 C 
BRANCH  25  26
ATOM     26  C21 UNL     1     128.868 119.736 136.762  0.00  0.00    +0.000 A 
ATOM     27  C22 UNL     1     129.910 119.156 137.485  0.00  0.00    +0.000 A 
ATOM     28  F1  UNL     1     131.024 119.931 137.746  0.00  0.00    +0.000 F 
ATOM     29  C23 UNL     1     129.829 117.887 137.961  0.00  0.00    +0.000 A 
ATOM     30  C24 UNL     1     128.708 117.109 137.748  0.00  0.00    +0.000 A 
ATOM     31 CL1  UNL     1     128.565 115.484 138.357  0.00  0.00    +0.000 Cl
ATOM     32  C25 UNL     1     127.648 117.622 137.042  0.00  0.00    +0.000 A 
ATOM     33  C26 UNL     1     127.733 118.944 136.553  0.00  0.00    +0.000 A 
BRANCH  32  34
ATOM     34  N5  UNL     1     126.513 116.794 136.712  0.00  0.00    +0.000 N 
ATOM     35  H31 UNL     1     125.573 117.125 137.000  0.00  0.00    +0.000 HD
ATOM     36  H32 UNL     1     126.634 115.915 136.201  0.00  0.00    +0.000 HD
ENDBRANCH  32  34
ENDBRANCH  25  26
ENDBRANCH  22  25
ENDBRANCH  20  23
ENDBRANCH  19  20
ENDBRANCH   1  19
BRANCH   9  37
ATOM     37  C16 UNL     1     128.669 116.738 132.246  0.00  0.00    +0.000 C 
BRANCH  37  38
ATOM     38  C17 UNL     1     128.803 116.495 133.757  0.00  0.00    +0.000 C 
BRANCH  38  39
ATOM     39  C18 UNL     1     129.296 115.215 134.226  0.00  0.00    +0.000 C 
ATOM     40  C19 UNL     1     128.757 113.944 133.664  0.00  0.00    +0.000 C 
ENDBRANCH  38  39
ENDBRANCH  37  38
ENDBRANCH   9  37
TORSDOF 11
ENDMDL
MODEL 8
REMARK VINA RESULT:      -9.2      1.415      1.802
REMARK  Name = aganitha_data/bbio_mols_pdbqt/AGAN-407.pdb
REMARK  13 active torsions:
REMARK  status: ('A' for Active; 'I' for Inactive)
REMARK    1  A    between atoms: C1_1  and  N1_2
REMARK    2  A    between atoms: N1_2  and  C20_29
REMARK    3  A    between atoms: C2_3  and  C3_4
REMARK    4  A    between atoms: C3_4  and  C4_5
REMARK    5  A    between atoms: C4_5  and  C5_6
REMARK    6  A    between atoms: C8_10  and  S1_11
REMARK    7  A    between atoms: S1_11  and  N3_12
REMARK    8  A    between atoms: N4_23  and  C16_24
REMARK    9  A    between atoms: C16_24  and  C17_25
REMARK   10  A    between atoms: C17_25  and  C18_26
REMARK   11  A    between atoms: C18_26  and  C19_27
REMARK   12  A    between atoms: C20_29  and  C21_30
REMARK   13  A    between atoms: C25_36  and  N5_37
REMARK                            x       y       z     vdW  Elec       q    Type
REMARK                         _______ _______ _______ _____ _____    ______ ____
ROOT
ATOM      1  C5  UNL     1     130.618 117.634 132.227  0.00  0.00    +0.000 A 
ATOM      2  N2  UNL     1     131.554 117.564 131.133  0.00  0.00    +0.000 NA
ATOM      3  C6  UNL     1     131.634 116.299 130.753  0.00  0.00    +0.000 A 
ATOM      4  C7  UNL     1     132.413 115.742 129.768  0.00  0.00    +0.000 A 
ATOM      5  C8  UNL     1     132.347 114.344 129.587  0.00  0.00    +0.000 A 
ATOM      6  C13 UNL     1     131.559 113.614 130.359  0.00  0.00    +0.000 A 
ATOM      7  C14 UNL     1     130.744 114.141 131.362  0.00  0.00    +0.000 A 
ATOM      8  C15 UNL     1     130.825 115.552 131.524  0.00  0.00    +0.000 A 
ATOM      9  N4  UNL     1     130.224 116.412 132.403  0.00  0.00    +0.000 N 
ENDROOT
BRANCH   5  10
ATOM     10  S1  UNL     1     133.363 113.724 128.312  0.00  0.00    +0.000 S 
ATOM     11  O2  UNL     1     133.080 112.278 128.090  0.00  0.00    +0.000 OA
ATOM     12  O3  UNL     1     133.066 114.524 127.084  0.00  0.00    +0.000 OA
BRANCH  10  13
ATOM     13  N3  UNL     1     134.984 113.991 128.819  0.00  0.00    +0.000 NA
ATOM     14  C9  UNL     1     135.874 112.897 128.601  0.00  0.00    +0.000 C 
ATOM     15  C10 UNL     1     135.978 112.002 129.822  0.00  0.00    +0.000 C 
ATOM     16  O1  UNL     1     136.018 112.722 130.982  0.00  0.00    +0.000 OA
ATOM     17  C11 UNL     1     136.305 114.061 130.854  0.00  0.00    +0.000 C 
ATOM     18  C12 UNL     1     135.145 114.681 130.060  0.00  0.00    +0.000 C 
ENDBRANCH  10  13
ENDBRANCH   5  10
BRANCH   1  19
ATOM     19  C4  UNL     1     130.515 118.941 132.747  0.00  0.00    +0.000 C 
BRANCH  19  20
ATOM     20  C3  UNL     1     131.346 119.723 133.594  0.00  0.00    +0.000 C 
BRANCH  20  23
ATOM     21  C1  UNL     1     130.886 118.212 136.118  0.00  0.00    +0.000 C 
ATOM     22  N1  UNL     1     130.166 119.589 135.918  0.00  0.00    +0.000 N 
ATOM     23  C2  UNL     1     130.484 120.129 134.750  0.00  0.00    +0.000 C 
ATOM     24  O4  UNL     1     129.926 121.336 134.470  0.00  0.00    +0.000 OA
BRANCH  22  25
ATOM     25  C20 UNL     1     129.225 119.763 136.972  0.00  0.00    +0.000 C 
BRANCH  25  26
ATOM     26  C21 UNL     1     128.270 118.694 137.312  0.00  0.00    +0.000 A 
ATOM     27  C22 UNL     1     128.282 118.163 138.601  0.00  0.00    +0.000 A 
ATOM     28  F1  UNL     1     128.945 118.871 139.585  0.00  0.00    +0.000 F 
ATOM     29  C23 UNL     1     127.632 117.010 138.904  0.00  0.00    +0.000 A 
ATOM     30  C24 UNL     1     126.928 116.308 137.946  0.00  0.00    +0.000 A 
ATOM     31 CL1  UNL     1     126.071 114.835 138.303  0.00  0.00    +0.000 Cl
ATOM     32  C25 UNL     1     126.880 116.777 136.657  0.00  0.00    +0.000 A 
ATOM     33  C26 UNL     1     127.552 117.980 136.346  0.00  0.00    +0.000 A 
BRANCH  32  34
ATOM     34  N5  UNL     1     126.245 116.007 135.615  0.00  0.00    +0.000 N 
ATOM     35  H31 UNL     1     126.168 116.438 134.674  0.00  0.00    +0.000 HD
ATOM     36  H32 UNL     1     125.894 115.063 135.798  0.00  0.00    +0.000 HD
ENDBRANCH  32  34
ENDBRANCH  25  26
ENDBRANCH  22  25
ENDBRANCH  20  23
ENDBRANCH  19  20
ENDBRANCH   1  19
BRANCH   9  37
ATOM     37  C16 UNL     1     129.183 115.940 133.316  0.00  0.00    +0.000 C 
BRANCH  37  38
ATOM     38  C17 UNL     1     127.834 116.308 132.682  0.00  0.00    +0.000 C 
BRANCH  38  39
ATOM     39  C18 UNL     1     127.182 115.356 131.804  0.00  0.00    +0.000 C 
ATOM     40  C19 UNL     1     126.686 114.054 132.332  0.00  0.00    +0.000 C 
ENDBRANCH  38  39
ENDBRANCH  37  38
ENDBRANCH   9  37
TORSDOF 11
ENDMDL
MODEL 9
REMARK VINA RESULT:      -9.2      1.485      1.672
REMARK  Name = aganitha_data/bbio_mols_pdbqt/AGAN-407.pdb
REMARK  13 active torsions:
REMARK  status: ('A' for Active; 'I' for Inactive)
REMARK    1  A    between atoms: C1_1  and  N1_2
REMARK    2  A    between atoms: N1_2  and  C20_29
REMARK    3  A    between atoms: C2_3  and  C3_4
REMARK    4  A    between atoms: C3_4  and  C4_5
REMARK    5  A    between atoms: C4_5  and  C5_6
REMARK    6  A    between atoms: C8_10  and  S1_11
REMARK    7  A    between atoms: S1_11  and  N3_12
REMARK    8  A    between atoms: N4_23  and  C16_24
REMARK    9  A    between atoms: C16_24  and  C17_25
REMARK   10  A    between atoms: C17_25  and  C18_26
REMARK   11  A    between atoms: C18_26  and  C19_27
REMARK   12  A    between atoms: C20_29  and  C21_30
REMARK   13  A    between atoms: C25_36  and  N5_37
REMARK                            x       y       z     vdW  Elec       q    Type
REMARK                         _______ _______ _______ _____ _____    ______ ____
ROOT
ATOM      1  C5  UNL     1     130.514 118.128 132.002  0.00  0.00    +0.000 A 
ATOM      2  N2  UNL     1     131.530 117.837 131.021  0.00  0.00    +0.000 NA
ATOM      3  C6  UNL     1     131.537 116.528 130.826  0.00  0.00    +0.000 A 
ATOM      4  C7  UNL     1     132.348 115.783 130.004  0.00  0.00    +0.000 A 
ATOM      5  C8  UNL     1     132.183 114.382 130.010  0.00  0.00    +0.000 A 
ATOM      6  C13 UNL     1     131.275 113.826 130.796  0.00  0.00    +0.000 A 
ATOM      7  C14 UNL     1     130.425 114.547 131.636  0.00  0.00    +0.000 A 
ATOM      8  C15 UNL     1     130.608 115.957 131.611  0.00  0.00    +0.000 A 
ATOM      9  N4  UNL     1     130.007 116.973 132.304  0.00  0.00    +0.000 N 
ENDROOT
BRANCH   5  10
ATOM     10  S1  UNL     1     133.247 113.517 128.932  0.00  0.00    +0.000 S 
ATOM     11  O2  UNL     1     132.578 112.281 128.436  0.00  0.00    +0.000 OA
ATOM     12  O3  UNL     1     133.577 114.440 127.803  0.00  0.00    +0.000 OA
BRANCH  10  13
ATOM     13  N3  UNL     1     134.662 113.161 129.842  0.00  0.00    +0.000 NA
ATOM     14  C9  UNL     1     135.515 114.277 130.093  0.00  0.00    +0.000 C 
ATOM     15  C10 UNL     1     136.607 114.398 129.046  0.00  0.00    +0.000 C 
ATOM     16  O1  UNL     1     137.122 113.182 128.701  0.00  0.00    +0.000 OA
ATOM     17  C11 UNL     1     136.845 112.142 129.558  0.00  0.00    +0.000 C 
ATOM     18  C12 UNL     1     135.324 111.938 129.518  0.00  0.00    +0.000 C 
ENDBRANCH  10  13
ENDBRANCH   5  10
BRANCH   1  19
ATOM     19  C4  UNL     1     130.475 119.499 132.327  0.00  0.00    +0.000 C 
BRANCH  19  20
ATOM     20  C3  UNL     1     131.192 120.303 133.255  0.00  0.00    +0.000 C 
BRANCH  20  23
ATOM     21  C1  UNL     1     128.811 121.584 134.500  0.00  0.00    +0.000 C 
ATOM     22  N1  UNL     1     129.575 120.471 135.296  0.00  0.00    +0.000 N 
ATOM     23  C2  UNL     1     130.600 120.004 134.598  0.00  0.00    +0.000 C 
ATOM     24  O4  UNL     1     131.333 119.021 135.185  0.00  0.00    +0.000 OA
BRANCH  22  25
ATOM     25  C20 UNL     1     129.055 120.427 136.620  0.00  0.00    +0.000 C 
BRANCH  25  26
ATOM     26  C21 UNL     1     128.621 119.152 137.216  0.00  0.00    +0.000 A 
ATOM     27  C22 UNL     1     127.976 118.215 136.409  0.00  0.00    +0.000 A 
ATOM     28  F1  UNL     1     128.063 118.373 135.039  0.00  0.00    +0.000 F 
ATOM     29  C23 UNL     1     127.316 117.152 136.937  0.00  0.00    +0.000 A 
ATOM     30  C24 UNL     1     127.251 116.951 138.302  0.00  0.00    +0.000 A 
ATOM     31 CL1  UNL     1     126.426 115.592 139.011  0.00  0.00    +0.000 Cl
ATOM     32  C25 UNL     1     127.864 117.840 139.150  0.00  0.00    +0.000 A 
ATOM     33  C26 UNL     1     128.555 118.940 138.598  0.00  0.00    +0.000 A 
BRANCH  32  34
ATOM     34  N5  UNL     1     127.718 117.714 140.580  0.00  0.00    +0.000 N 
ATOM     35  H31 UNL     1     128.044 118.502 141.171  0.00  0.00    +0.000 HD
ATOM     36  H32 UNL     1     127.297 116.877 140.995  0.00  0.00    +0.000 HD
ENDBRANCH  32  34
ENDBRANCH  25  26
ENDBRANCH  22  25
ENDBRANCH  20  23
ENDBRANCH  19  20
ENDBRANCH   1  19
BRANCH   9  37
ATOM     37  C16 UNL     1     128.859 116.711 133.171  0.00  0.00    +0.000 C 
BRANCH  37  38
ATOM     38  C17 UNL     1     127.697 116.295 132.256  0.00  0.00    +0.000 C 
BRANCH  38  39
ATOM     39  C18 UNL     1     126.659 115.429 132.781  0.00  0.00    +0.000 C 
ATOM     40  C19 UNL     1     126.779 113.948 132.669  0.00  0.00    +0.000 C 
ENDBRANCH  38  39
ENDBRANCH  37  38
ENDBRANCH   9  37
TORSDOF 11
ENDMDL
