MODEL 1
REMARK VINA RESULT:     -12.7      0.000      0.000
REMARK  Name = aganitha_data/bbio_mols_pdbqt/AGAN245-df-15-CN.pdb
REMARK  9 active torsions:
REMARK  status: ('A' for Active; 'I' for Inactive)
REMARK    1  A    between atoms: C1_2  and  C2_4
REMARK    2  A    between atoms: C2_4  and  C3_5
REMARK    3  A    between atoms: C6_8  and  N2_9
REMARK    4  A    between atoms: C7_10  and  C8_12
REMARK    5  A    between atoms: C10_15  and  C11_16
REMARK    6  A    between atoms: C11_16  and  S1_17
REMARK    7  A    between atoms: S1_17  and  C12_20
REMARK    8  A    between atoms: C20_28  and  C21_29
REMARK    9  A    between atoms: C22_33  and  C24_35
REMARK                            x       y       z     vdW  Elec       q    Type
REMARK                         _______ _______ _______ _____ _____    ______ ____
ROOT
ATOM      1  N2  UNL     1     131.591 117.339 131.900  0.00  0.00    +0.000 N 
ATOM      2  C7  UNL     1     131.142 118.663 131.710  0.00  0.00    +0.000 C 
ATOM      3  O2  UNL     1     130.775 118.921 130.537  0.00  0.00    +0.000 OA
ATOM      4  H7  UNL     1     131.909 117.091 132.875  0.00  0.00    +0.000 HD
ENDROOT
BRANCH   2   5
ATOM      5  C8  UNL     1     131.075 119.712 132.728  0.00  0.00    +0.000 A 
ATOM      6  C9  UNL     1     130.327 119.595 133.866  0.00  0.00    +0.000 A 
ATOM      7  F1  UNL     1     129.554 118.501 134.067  0.00  0.00    +0.000 F 
ATOM      8  C10 UNL     1     130.284 120.580 134.881  0.00  0.00    +0.000 A 
ATOM      9  C18 UNL     1     131.036 121.691 134.682  0.00  0.00    +0.000 A 
ATOM     10  C19 UNL     1     131.791 121.837 133.555  0.00  0.00    +0.000 A 
ATOM     11  C20 UNL     1     131.830 120.851 132.549  0.00  0.00    +0.000 A 
BRANCH  11  12
ATOM     12  C21 UNL     1     132.648 121.067 131.358  0.00  0.00    +0.000 C 
ATOM     13  F2  UNL     1     133.532 122.150 131.655  0.00  0.00    +0.000 F 
ATOM     14  F3  UNL     1     133.521 120.050 131.048  0.00  0.00    +0.000 F 
ATOM     15  F4  UNL     1     131.956 121.568 130.263  0.00  0.00    +0.000 F 
ENDBRANCH  11  12
BRANCH   8  16
ATOM     16  C11 UNL     1     129.459 120.300 136.068  0.00  0.00    +0.000 C 
BRANCH  16  17
ATOM     17  S1  UNL     1     129.957 118.983 137.089  0.00  0.00    +0.000 S 
ATOM     18  O3  UNL     1     131.213 118.379 136.461  0.00  0.00    +0.000 OA
ATOM     19  O4  UNL     1     130.283 119.452 138.492  0.00  0.00    +0.000 OA
BRANCH  17  20
ATOM     20  C12 UNL     1     128.825 117.678 137.245  0.00  0.00    +0.000 A 
ATOM     21  C13 UNL     1     127.481 117.825 137.050  0.00  0.00    +0.000 A 
ATOM     22  C14 UNL     1     126.580 116.767 137.171  0.00  0.00    +0.000 A 
ATOM     23  C15 UNL     1     127.021 115.522 137.495  0.00  0.00    +0.000 A 
ATOM     24  C16 UNL     1     128.370 115.328 137.701  0.00  0.00    +0.000 A 
ATOM     25  C17 UNL     1     129.249 116.381 137.579  0.00  0.00    +0.000 A 
ENDBRANCH  17  20
ENDBRANCH  16  17
ENDBRANCH   8  16
ENDBRANCH   2   5
BRANCH   1  29
ATOM     26  C3  UNL     1     131.697 114.214 129.067  0.00  0.00    +0.000 A 
ATOM     27  C4  UNL     1     132.716 115.123 129.113  0.00  0.00    +0.000 A 
ATOM     28  C5  UNL     1     132.693 116.152 130.069  0.00  0.00    +0.000 A 
ATOM     29  C6  UNL     1     131.670 116.280 130.970  0.00  0.00    +0.000 A 
ATOM     30  C22 UNL     1     130.644 115.352 130.913  0.00  0.00    +0.000 A 
ATOM     31  C23 UNL     1     130.670 114.326 129.957  0.00  0.00    +0.000 A 
BRANCH  30  32
ATOM     32  C24 UNL     1     129.572 115.417 131.872  0.00  0.00    +0.000 A 
ATOM     33  C25 UNL     1     129.727 114.924 133.133  0.00  0.00    +0.000 A 
ATOM     34  C26 UNL     1     128.721 114.968 134.087  0.00  0.00    +0.000 A 
ATOM     35  C27 UNL     1     127.521 115.537 133.728  0.00  0.00    +0.000 A 
ATOM     36  C28 UNL     1     127.322 116.043 132.476  0.00  0.00    +0.000 A 
ATOM     37  C29 UNL     1     128.366 115.978 131.538  0.00  0.00    +0.000 A 
ENDBRANCH  30  32
BRANCH  26  38
ATOM     38  C2  UNL     1     131.730 113.139 128.060  0.00  0.00    +0.000 C 
BRANCH  38  40
ATOM     39  N1  UNL     1     133.768 112.641 126.737  0.00  0.00    +0.000 N 
ATOM     40  C1  UNL     1     133.082 112.573 127.988  0.00  0.00    +0.000 C 
ATOM     41  O1  UNL     1     133.596 112.054 129.004  0.00  0.00    +0.000 OA
ATOM     42  H1  UNL     1     134.400 111.902 126.384  0.00  0.00    +0.000 HD
ATOM     43  H2  UNL     1     133.622 113.486 126.148  0.00  0.00    +0.000 HD
ENDBRANCH  38  40
ENDBRANCH  26  38
ENDBRANCH   1  29
TORSDOF 9
ENDMDL
MODEL 2
REMARK VINA RESULT:     -12.6      0.911      1.365
REMARK  Name = aganitha_data/bbio_mols_pdbqt/AGAN245-df-15-CN.pdb
REMARK  9 active torsions:
REMARK  status: ('A' for Active; 'I' for Inactive)
REMARK    1  A    between atoms: C1_2  and  C2_4
REMARK    2  A    between atoms: C2_4  and  C3_5
REMARK    3  A    between atoms: C6_8  and  N2_9
REMARK    4  A    between atoms: C7_10  and  C8_12
REMARK    5  A    between atoms: C10_15  and  C11_16
REMARK    6  A    between atoms: C11_16  and  S1_17
REMARK    7  A    between atoms: S1_17  and  C12_20
REMARK    8  A    between atoms: C20_28  and  C21_29
REMARK    9  A    between atoms: C22_33  and  C24_35
REMARK                            x       y       z     vdW  Elec       q    Type
REMARK                         _______ _______ _______ _____ _____    ______ ____
ROOT
ATOM      1  N2  UNL     1     131.585 117.355 131.667  0.00  0.00    +0.000 N 
ATOM      2  C7  UNL     1     131.189 118.675 131.371  0.00  0.00    +0.000 C 
ATOM      3  O2  UNL     1     131.063 118.915 130.145  0.00  0.00    +0.000 OA
ATOM      4  H7  UNL     1     131.703 117.121 132.690  0.00  0.00    +0.000 HD
ENDROOT
BRANCH   2   5
ATOM      5  C8  UNL     1     130.927 119.742 132.339  0.00  0.00    +0.000 A 
ATOM      6  C9  UNL     1     129.937 119.663 133.279  0.00  0.00    +0.000 A 
ATOM      7  F1  UNL     1     129.104 118.596 133.308  0.00  0.00    +0.000 F 
ATOM      8  C10 UNL     1     129.697 120.665 134.249  0.00  0.00    +0.000 A 
ATOM      9  C18 UNL     1     130.510 121.750 134.217  0.00  0.00    +0.000 A 
ATOM     10  C19 UNL     1     131.504 121.857 133.290  0.00  0.00    +0.000 A 
ATOM     11  C20 UNL     1     131.738 120.855 132.327  0.00  0.00    +0.000 A 
BRANCH  11  12
ATOM     12  C21 UNL     1     132.812 121.029 131.351  0.00  0.00    +0.000 C 
ATOM     13  F2  UNL     1     133.665 122.059 131.854  0.00  0.00    +0.000 F 
ATOM     14  F3  UNL     1     133.676 119.965 131.226  0.00  0.00    +0.000 F 
ATOM     15  F4  UNL     1     132.410 121.572 130.138  0.00  0.00    +0.000 F 
ENDBRANCH  11  12
BRANCH   8  16
ATOM     16  C11 UNL     1     128.615 120.427 135.221  0.00  0.00    +0.000 C 
BRANCH  16  17
ATOM     17  S1  UNL     1     129.041 119.616 136.700  0.00  0.00    +0.000 S 
ATOM     18  O3  UNL     1     130.566 119.627 136.794  0.00  0.00    +0.000 OA
ATOM     19  O4  UNL     1     128.466 120.321 137.912  0.00  0.00    +0.000 OA
BRANCH  17  20
ATOM     20  C12 UNL     1     128.565 117.952 136.813  0.00  0.00    +0.000 A 
ATOM     21  C13 UNL     1     129.450 116.913 136.745  0.00  0.00    +0.000 A 
ATOM     22  C14 UNL     1     129.056 115.579 136.844  0.00  0.00    +0.000 A 
ATOM     23  C15 UNL     1     127.746 115.260 137.016  0.00  0.00    +0.000 A 
ATOM     24  C16 UNL     1     126.819 116.276 137.090  0.00  0.00    +0.000 A 
ATOM     25  C17 UNL     1     127.219 117.590 136.990  0.00  0.00    +0.000 A 
ENDBRANCH  17  20
ENDBRANCH  16  17
ENDBRANCH   8  16
ENDBRANCH   2   5
BRANCH   1  29
ATOM     26  C3  UNL     1     132.223 114.169 128.974  0.00  0.00    +0.000 A 
ATOM     27  C4  UNL     1     133.141 115.176 129.063  0.00  0.00    +0.000 A 
ATOM     28  C5  UNL     1     132.941 116.228 129.974  0.00  0.00    +0.000 A 
ATOM     29  C6  UNL     1     131.841 116.280 130.788  0.00  0.00    +0.000 A 
ATOM     30  C22 UNL     1     130.919 115.252 130.689  0.00  0.00    +0.000 A 
ATOM     31  C23 UNL     1     131.122 114.205 129.779  0.00  0.00    +0.000 A 
BRANCH  30  32
ATOM     32  C24 UNL     1     129.773 115.239 131.559  0.00  0.00    +0.000 A 
ATOM     33  C25 UNL     1     128.653 115.954 131.257  0.00  0.00    +0.000 A 
ATOM     34  C26 UNL     1     127.527 115.968 132.068  0.00  0.00    +0.000 A 
ATOM     35  C27 UNL     1     127.560 115.222 133.224  0.00  0.00    +0.000 A 
ATOM     36  C28 UNL     1     128.661 114.491 133.566  0.00  0.00    +0.000 A 
ATOM     37  C29 UNL     1     129.781 114.504 132.717  0.00  0.00    +0.000 A 
ENDBRANCH  30  32
BRANCH  26  38
ATOM     38  C2  UNL     1     132.441 113.072 128.016  0.00  0.00    +0.000 C 
BRANCH  38  40
ATOM     39  N1  UNL     1     134.456 112.324 129.255  0.00  0.00    +0.000 N 
ATOM     40  C1  UNL     1     133.860 112.696 128.012  0.00  0.00    +0.000 C 
ATOM     41  O1  UNL     1     134.505 112.710 126.939  0.00  0.00    +0.000 OA
ATOM     42  H1  UNL     1     135.430 112.547 129.519  0.00  0.00    +0.000 HD
ATOM     43  H2  UNL     1     133.872 111.794 129.935  0.00  0.00    +0.000 HD
ENDBRANCH  38  40
ENDBRANCH  26  38
ENDBRANCH   1  29
TORSDOF 9
ENDMDL
MODEL 3
REMARK VINA RESULT:     -12.1      1.089      1.331
REMARK  Name = aganitha_data/bbio_mols_pdbqt/AGAN245-df-15-CN.pdb
REMARK  9 active torsions:
REMARK  status: ('A' for Active; 'I' for Inactive)
REMARK    1  A    between atoms: C1_2  and  C2_4
REMARK    2  A    between atoms: C2_4  and  C3_5
REMARK    3  A    between atoms: C6_8  and  N2_9
REMARK    4  A    between atoms: C7_10  and  C8_12
REMARK    5  A    between atoms: C10_15  and  C11_16
REMARK    6  A    between atoms: C11_16  and  S1_17
REMARK    7  A    between atoms: S1_17  and  C12_20
REMARK    8  A    between atoms: C20_28  and  C21_29
REMARK    9  A    between atoms: C22_33  and  C24_35
REMARK                            x       y       z     vdW  Elec       q    Type
REMARK                         _______ _______ _______ _____ _____    ______ ____
ROOT
ATOM      1  N2  UNL     1     131.731 117.229 131.603  0.00  0.00    +0.000 N 
ATOM      2  C7  UNL     1     131.269 118.533 131.329  0.00  0.00    +0.000 C 
ATOM      3  O2  UNL     1     131.182 118.805 130.107  0.00  0.00    +0.000 OA
ATOM      4  H7  UNL     1     131.818 116.970 132.623  0.00  0.00    +0.000 HD
ENDROOT
BRANCH   2   5
ATOM      5  C8  UNL     1     130.901 119.549 132.316  0.00  0.00    +0.000 A 
ATOM      6  C9  UNL     1     129.883 119.379 133.213  0.00  0.00    +0.000 A 
ATOM      7  F1  UNL     1     129.121 118.260 133.177  0.00  0.00    +0.000 F 
ATOM      8  C10 UNL     1     129.541 120.332 134.201  0.00  0.00    +0.000 A 
ATOM      9  C18 UNL     1     130.282 121.467 134.233  0.00  0.00    +0.000 A 
ATOM     10  C19 UNL     1     131.302 121.666 133.350  0.00  0.00    +0.000 A 
ATOM     11  C20 UNL     1     131.638 120.713 132.368  0.00  0.00    +0.000 A 
BRANCH  11  12
ATOM     12  C21 UNL     1     132.734 120.985 131.442  0.00  0.00    +0.000 C 
ATOM     13  F2  UNL     1     132.141 121.386 130.206  0.00  0.00    +0.000 F 
ATOM     14  F3  UNL     1     133.520 122.070 131.758  0.00  0.00    +0.000 F 
ATOM     15  F4  UNL     1     133.455 119.864 131.052  0.00  0.00    +0.000 F 
ENDBRANCH  11  12
BRANCH   8  16
ATOM     16  C11 UNL     1     128.441 119.994 135.121  0.00  0.00    +0.000 C 
BRANCH  16  17
ATOM     17  S1  UNL     1     128.877 119.355 136.679  0.00  0.00    +0.000 S 
ATOM     18  O3  UNL     1     130.373 119.046 136.634  0.00  0.00    +0.000 OA
ATOM     19  O4  UNL     1     128.610 120.351 137.789  0.00  0.00    +0.000 OA
BRANCH  17  20
ATOM     20  C12 UNL     1     128.095 117.874 137.133  0.00  0.00    +0.000 A 
ATOM     21  C13 UNL     1     127.908 117.493 138.431  0.00  0.00    +0.000 A 
ATOM     22  C14 UNL     1     127.272 116.304 138.785  0.00  0.00    +0.000 A 
ATOM     23  C15 UNL     1     126.804 115.462 137.824  0.00  0.00    +0.000 A 
ATOM     24  C16 UNL     1     126.971 115.808 136.501  0.00  0.00    +0.000 A 
ATOM     25  C17 UNL     1     127.601 116.985 136.164  0.00  0.00    +0.000 A 
ENDBRANCH  17  20
ENDBRANCH  16  17
ENDBRANCH   8  16
ENDBRANCH   2   5
BRANCH   1  29
ATOM     26  C3  UNL     1     132.676 114.175 128.848  0.00  0.00    +0.000 A 
ATOM     27  C4  UNL     1     133.517 115.242 128.994  0.00  0.00    +0.000 A 
ATOM     28  C5  UNL     1     133.215 116.250 129.925  0.00  0.00    +0.000 A 
ATOM     29  C6  UNL     1     132.090 116.200 130.704  0.00  0.00    +0.000 A 
ATOM     30  C22 UNL     1     131.246 115.114 130.548  0.00  0.00    +0.000 A 
ATOM     31  C23 UNL     1     131.551 114.110 129.617  0.00  0.00    +0.000 A 
BRANCH  30  32
ATOM     32  C24 UNL     1     130.078 114.995 131.380  0.00  0.00    +0.000 A 
ATOM     33  C25 UNL     1     130.117 114.297 132.550  0.00  0.00    +0.000 A 
ATOM     34  C26 UNL     1     129.015 114.160 133.381  0.00  0.00    +0.000 A 
ATOM     35  C27 UNL     1     127.839 114.760 132.992  0.00  0.00    +0.000 A 
ATOM     36  C28 UNL     1     127.755 115.469 131.829  0.00  0.00    +0.000 A 
ATOM     37  C29 UNL     1     128.894 115.584 131.014  0.00  0.00    +0.000 A 
ENDBRANCH  30  32
BRANCH  26  38
ATOM     38  C2  UNL     1     133.001 113.124 127.869  0.00  0.00    +0.000 C 
BRANCH  38  40
ATOM     39  N1  UNL     1     134.716 112.257 129.438  0.00  0.00    +0.000 N 
ATOM     40  C1  UNL     1     134.364 112.634 128.106  0.00  0.00    +0.000 C 
ATOM     41  O1  UNL     1     135.174 112.558 127.155  0.00  0.00    +0.000 OA
ATOM     42  H1  UNL     1     135.650 112.409 129.854  0.00  0.00    +0.000 HD
ATOM     43  H2  UNL     1     133.985 111.801 130.023  0.00  0.00    +0.000 HD
ENDBRANCH  38  40
ENDBRANCH  26  38
ENDBRANCH   1  29
TORSDOF 9
ENDMDL
MODEL 4
REMARK VINA RESULT:     -11.9      1.191      1.479
REMARK  Name = aganitha_data/bbio_mols_pdbqt/AGAN245-df-15-CN.pdb
REMARK  9 active torsions:
REMARK  status: ('A' for Active; 'I' for Inactive)
REMARK    1  A    between atoms: C1_2  and  C2_4
REMARK    2  A    between atoms: C2_4  and  C3_5
REMARK    3  A    between atoms: C6_8  and  N2_9
REMARK    4  A    between atoms: C7_10  and  C8_12
REMARK    5  A    between atoms: C10_15  and  C11_16
REMARK    6  A    between atoms: C11_16  and  S1_17
REMARK    7  A    between atoms: S1_17  and  C12_20
REMARK    8  A    between atoms: C20_28  and  C21_29
REMARK    9  A    between atoms: C22_33  and  C24_35
REMARK                            x       y       z     vdW  Elec       q    Type
REMARK                         _______ _______ _______ _____ _____    ______ ____
ROOT
ATOM      1  N2  UNL     1     131.710 116.926 131.477  0.00  0.00    +0.000 N 
ATOM      2  C7  UNL     1     131.327 118.249 131.173  0.00  0.00    +0.000 C 
ATOM      3  O2  UNL     1     131.274 118.503 129.945  0.00  0.00    +0.000 OA
ATOM      4  H7  UNL     1     131.767 116.681 132.503  0.00  0.00    +0.000 HD
ENDROOT
BRANCH   2   5
ATOM      5  C8  UNL     1     131.003 119.303 132.136  0.00  0.00    +0.000 A 
ATOM      6  C9  UNL     1     130.007 119.179 133.065  0.00  0.00    +0.000 A 
ATOM      7  F1  UNL     1     129.226 118.073 133.086  0.00  0.00    +0.000 F 
ATOM      8  C10 UNL     1     129.707 120.169 134.030  0.00  0.00    +0.000 A 
ATOM      9  C18 UNL     1     130.468 121.292 134.005  0.00  0.00    +0.000 A 
ATOM     10  C19 UNL     1     131.467 121.445 133.089  0.00  0.00    +0.000 A 
ATOM     11  C20 UNL     1     131.760 120.454 132.131  0.00  0.00    +0.000 A 
BRANCH  11  12
ATOM     12  C21 UNL     1     132.835 120.678 131.167  0.00  0.00    +0.000 C 
ATOM     13  F2  UNL     1     133.597 121.786 131.649  0.00  0.00    +0.000 F 
ATOM     14  F3  UNL     1     133.779 119.680 131.092  0.00  0.00    +0.000 F 
ATOM     15  F4  UNL     1     132.415 121.149 129.930  0.00  0.00    +0.000 F 
ENDBRANCH  11  12
BRANCH   8  16
ATOM     16  C11 UNL     1     128.628 119.880 134.990  0.00  0.00    +0.000 C 
BRANCH  16  17
ATOM     17  S1  UNL     1     129.094 119.272 136.551  0.00  0.00    +0.000 S 
ATOM     18  O3  UNL     1     130.590 118.961 136.483  0.00  0.00    +0.000 OA
ATOM     19  O4  UNL     1     128.850 120.290 137.646  0.00  0.00    +0.000 OA
BRANCH  17  20
ATOM     20  C12 UNL     1     128.322 117.801 137.051  0.00  0.00    +0.000 A 
ATOM     21  C13 UNL     1     128.062 117.498 138.357  0.00  0.00    +0.000 A 
ATOM     22  C14 UNL     1     127.433 116.315 138.746  0.00  0.00    +0.000 A 
ATOM     23  C15 UNL     1     127.049 115.402 137.815  0.00  0.00    +0.000 A 
ATOM     24  C16 UNL     1     127.292 115.667 136.485  0.00  0.00    +0.000 A 
ATOM     25  C17 UNL     1     127.914 116.838 136.112  0.00  0.00    +0.000 A 
ENDBRANCH  17  20
ENDBRANCH  16  17
ENDBRANCH   8  16
ENDBRANCH   2   5
BRANCH   1  29
ATOM     26  C3  UNL     1     132.518 113.770 128.796  0.00  0.00    +0.000 A 
ATOM     27  C4  UNL     1     133.394 114.811 128.901  0.00  0.00    +0.000 A 
ATOM     28  C5  UNL     1     133.138 115.854 129.808  0.00  0.00    +0.000 A 
ATOM     29  C6  UNL     1     132.023 115.863 130.603  0.00  0.00    +0.000 A 
ATOM     30  C22 UNL     1     131.142 114.800 130.487  0.00  0.00    +0.000 A 
ATOM     31  C23 UNL     1     131.402 113.763 129.580  0.00  0.00    +0.000 A 
BRANCH  30  32
ATOM     32  C24 UNL     1     129.982 114.743 131.337  0.00  0.00    +0.000 A 
ATOM     33  C25 UNL     1     128.819 115.356 130.980  0.00  0.00    +0.000 A 
ATOM     34  C26 UNL     1     127.678 115.324 131.769  0.00  0.00    +0.000 A 
ATOM     35  C27 UNL     1     127.742 114.639 132.961  0.00  0.00    +0.000 A 
ATOM     36  C28 UNL     1     128.887 114.010 133.358  0.00  0.00    +0.000 A 
ATOM     37  C29 UNL     1     130.021 114.066 132.530  0.00  0.00    +0.000 A 
ENDBRANCH  30  32
BRANCH  26  38
ATOM     38  C2  UNL     1     132.795 112.683 127.842  0.00  0.00    +0.000 C 
BRANCH  38  40
ATOM     39  N1  UNL     1     131.536 111.020 126.498  0.00  0.00    +0.000 N 
ATOM     40  C1  UNL     1     131.547 112.270 127.189  0.00  0.00    +0.000 C 
ATOM     41  O1  UNL     1     130.538 113.007 127.251  0.00  0.00    +0.000 OA
ATOM     42  H1  UNL     1     131.011 110.846 125.626  0.00  0.00    +0.000 HD
ATOM     43  H2  UNL     1     132.092 110.237 126.902  0.00  0.00    +0.000 HD
ENDBRANCH  38  40
ENDBRANCH  26  38
ENDBRANCH   1  29
TORSDOF 9
ENDMDL
MODEL 5
REMARK VINA RESULT:     -11.8      2.828      5.029
REMARK  Name = aganitha_data/bbio_mols_pdbqt/AGAN245-df-15-CN.pdb
REMARK  9 active torsions:
REMARK  status: ('A' for Active; 'I' for Inactive)
REMARK    1  A    between atoms: C1_2  and  C2_4
REMARK    2  A    between atoms: C2_4  and  C3_5
REMARK    3  A    between atoms: C6_8  and  N2_9
REMARK    4  A    between atoms: C7_10  and  C8_12
REMARK    5  A    between atoms: C10_15  and  C11_16
REMARK    6  A    between atoms: C11_16  and  S1_17
REMARK    7  A    between atoms: S1_17  and  C12_20
REMARK    8  A    between atoms: C20_28  and  C21_29
REMARK    9  A    between atoms: C22_33  and  C24_35
REMARK                            x       y       z     vdW  Elec       q    Type
REMARK                         _______ _______ _______ _____ _____    ______ ____
ROOT
ATOM      1  N2  UNL     1     129.977 115.654 132.362  0.00  0.00    +0.000 N 
ATOM      2  C7  UNL     1     129.320 114.903 133.358  0.00  0.00    +0.000 C 
ATOM      3  O2  UNL     1     129.610 113.681 133.361  0.00  0.00    +0.000 OA
ATOM      4  H7  UNL     1     129.752 116.685 132.331  0.00  0.00    +0.000 HD
ENDROOT
BRANCH   2   5
ATOM      5  C8  UNL     1     128.366 115.413 134.344  0.00  0.00    +0.000 A 
ATOM      6  C9  UNL     1     128.701 115.645 135.650  0.00  0.00    +0.000 A 
ATOM      7  F1  UNL     1     129.942 115.342 136.101  0.00  0.00    +0.000 F 
ATOM      8  C10 UNL     1     127.806 116.177 136.607  0.00  0.00    +0.000 A 
ATOM      9  C18 UNL     1     126.553 116.464 136.173  0.00  0.00    +0.000 A 
ATOM     10  C19 UNL     1     126.189 116.242 134.877  0.00  0.00    +0.000 A 
ATOM     11  C20 UNL     1     127.087 115.711 133.930  0.00  0.00    +0.000 A 
BRANCH  11  12
ATOM     12  C21 UNL     1     126.638 115.486 132.558  0.00  0.00    +0.000 C 
ATOM     13  F2  UNL     1     125.227 115.707 132.543  0.00  0.00    +0.000 F 
ATOM     14  F3  UNL     1     127.089 116.396 131.630  0.00  0.00    +0.000 F 
ATOM     15  F4  UNL     1     126.714 114.166 132.133  0.00  0.00    +0.000 F 
ENDBRANCH  11  12
BRANCH   8  16
ATOM     16  C11 UNL     1     128.319 116.404 137.969  0.00  0.00    +0.000 C 
BRANCH  16  17
ATOM     17  S1  UNL     1     129.501 117.663 138.173  0.00  0.00    +0.000 S 
ATOM     18  O3  UNL     1     129.275 118.270 139.558  0.00  0.00    +0.000 OA
ATOM     19  O4  UNL     1     130.915 117.125 138.094  0.00  0.00    +0.000 OA
BRANCH  17  20
ATOM     20  C12 UNL     1     129.401 118.982 137.050  0.00  0.00    +0.000 A 
ATOM     21  C13 UNL     1     128.296 119.775 136.922  0.00  0.00    +0.000 A 
ATOM     22  C14 UNL     1     128.230 120.837 136.021  0.00  0.00    +0.000 A 
ATOM     23  C15 UNL     1     129.290 121.126 135.220  0.00  0.00    +0.000 A 
ATOM     24  C16 UNL     1     130.425 120.351 135.315  0.00  0.00    +0.000 A 
ATOM     25  C17 UNL     1     130.479 119.305 136.209  0.00  0.00    +0.000 A 
ENDBRANCH  17  20
ENDBRANCH  16  17
ENDBRANCH   8  16
ENDBRANCH   2   5
BRANCH   1  29
ATOM     26  C3  UNL     1     132.876 114.446 129.544  0.00  0.00    +0.000 A 
ATOM     27  C4  UNL     1     132.075 113.512 130.136  0.00  0.00    +0.000 A 
ATOM     28  C5  UNL     1     131.095 113.914 131.059  0.00  0.00    +0.000 A 
ATOM     29  C6  UNL     1     130.912 115.230 131.393  0.00  0.00    +0.000 A 
ATOM     30  C22 UNL     1     131.731 116.166 130.785  0.00  0.00    +0.000 A 
ATOM     31  C23 UNL     1     132.707 115.761 129.865  0.00  0.00    +0.000 A 
BRANCH  30  32
ATOM     32  C24 UNL     1     131.541 117.565 131.068  0.00  0.00    +0.000 A 
ATOM     33  C25 UNL     1     132.220 118.520 130.372  0.00  0.00    +0.000 A 
ATOM     34  C26 UNL     1     132.066 119.878 130.613  0.00  0.00    +0.000 A 
ATOM     35  C27 UNL     1     131.186 120.259 131.600  0.00  0.00    +0.000 A 
ATOM     36  C28 UNL     1     130.486 119.336 132.321  0.00  0.00    +0.000 A 
ATOM     37  C29 UNL     1     130.671 117.970 132.047  0.00  0.00    +0.000 A 
ENDBRANCH  30  32
BRANCH  26  38
ATOM     38  C2  UNL     1     133.901 114.015 128.578  0.00  0.00    +0.000 C 
BRANCH  38  40
ATOM     39  N1  UNL     1     136.084 114.680 129.550  0.00  0.00    +0.000 N 
ATOM     40  C1  UNL     1     135.129 113.649 129.293  0.00  0.00    +0.000 C 
ATOM     41  O1  UNL     1     135.310 112.465 129.657  0.00  0.00    +0.000 OA
ATOM     42  H1  UNL     1     137.108 114.536 129.533  0.00  0.00    +0.000 HD
ATOM     43  H2  UNL     1     135.725 115.632 129.769  0.00  0.00    +0.000 HD
ENDBRANCH  38  40
ENDBRANCH  26  38
ENDBRANCH   1  29
TORSDOF 9
ENDMDL
MODEL 6
REMARK VINA RESULT:     -11.8      1.009      1.203
REMARK  Name = aganitha_data/bbio_mols_pdbqt/AGAN245-df-15-CN.pdb
REMARK  9 active torsions:
REMARK  status: ('A' for Active; 'I' for Inactive)
REMARK    1  A    between atoms: C1_2  and  C2_4
REMARK    2  A    between atoms: C2_4  and  C3_5
REMARK    3  A    between atoms: C6_8  and  N2_9
REMARK    4  A    between atoms: C7_10  and  C8_12
REMARK    5  A    between atoms: C10_15  and  C11_16
REMARK    6  A    between atoms: C11_16  and  S1_17
REMARK    7  A    between atoms: S1_17  and  C12_20
REMARK    8  A    between atoms: C20_28  and  C21_29
REMARK    9  A    between atoms: C22_33  and  C24_35
REMARK                            x       y       z     vdW  Elec       q    Type
REMARK                         _______ _______ _______ _____ _____    ______ ____
ROOT
ATOM      1  N2  UNL     1     131.301 117.087 131.793  0.00  0.00    +0.000 N 
ATOM      2  C7  UNL     1     130.981 118.434 131.522  0.00  0.00    +0.000 C 
ATOM      3  O2  UNL     1     130.973 118.728 130.302  0.00  0.00    +0.000 OA
ATOM      4  H7  UNL     1     131.319 116.808 132.811  0.00  0.00    +0.000 HD
ENDROOT
BRANCH   2   5
ATOM      5  C8  UNL     1     130.673 119.469 132.509  0.00  0.00    +0.000 A 
ATOM      6  C9  UNL     1     129.702 119.322 133.461  0.00  0.00    +0.000 A 
ATOM      7  F1  UNL     1     128.930 118.209 133.483  0.00  0.00    +0.000 F 
ATOM      8  C10 UNL     1     129.418 120.294 134.449  0.00  0.00    +0.000 A 
ATOM      9  C18 UNL     1     130.169 121.423 134.424  0.00  0.00    +0.000 A 
ATOM     10  C19 UNL     1     131.143 121.599 133.486  0.00  0.00    +0.000 A 
ATOM     11  C20 UNL     1     131.420 120.627 132.505  0.00  0.00    +0.000 A 
BRANCH  11  12
ATOM     12  C21 UNL     1     132.470 120.875 131.519  0.00  0.00    +0.000 C 
ATOM     13  F2  UNL     1     133.229 119.670 131.411  0.00  0.00    +0.000 F 
ATOM     14  F3  UNL     1     132.035 121.066 130.227  0.00  0.00    +0.000 F 
ATOM     15  F4  UNL     1     133.443 121.779 131.924  0.00  0.00    +0.000 F 
ENDBRANCH  11  12
BRANCH   8  16
ATOM     16  C11 UNL     1     128.365 119.981 135.430  0.00  0.00    +0.000 C 
BRANCH  16  17
ATOM     17  S1  UNL     1     128.839 119.094 136.849  0.00  0.00    +0.000 S 
ATOM     18  O3  UNL     1     130.271 118.612 136.619  0.00  0.00    +0.000 OA
ATOM     19  O4  UNL     1     128.803 119.961 138.092  0.00  0.00    +0.000 OA
BRANCH  17  20
ATOM     20  C12 UNL     1     127.906 117.674 137.199  0.00  0.00    +0.000 A 
ATOM     21  C13 UNL     1     127.433 116.832 136.233  0.00  0.00    +0.000 A 
ATOM     22  C14 UNL     1     126.690 115.689 136.527  0.00  0.00    +0.000 A 
ATOM     23  C15 UNL     1     126.405 115.366 137.816  0.00  0.00    +0.000 A 
ATOM     24  C16 UNL     1     126.862 116.188 138.823  0.00  0.00    +0.000 A 
ATOM     25  C17 UNL     1     127.595 117.315 138.521  0.00  0.00    +0.000 A 
ENDBRANCH  17  20
ENDBRANCH  16  17
ENDBRANCH   8  16
ENDBRANCH   2   5
BRANCH   1  29
ATOM     26  C3  UNL     1     132.059 113.989 129.031  0.00  0.00    +0.000 A 
ATOM     27  C4  UNL     1     132.990 114.969 129.223  0.00  0.00    +0.000 A 
ATOM     28  C5  UNL     1     132.750 115.991 130.157  0.00  0.00    +0.000 A 
ATOM     29  C6  UNL     1     131.596 116.040 130.893  0.00  0.00    +0.000 A 
ATOM     30  C22 UNL     1     130.660 115.040 130.689  0.00  0.00    +0.000 A 
ATOM     31  C23 UNL     1     130.905 114.022 129.756  0.00  0.00    +0.000 A 
BRANCH  30  32
ATOM     32  C24 UNL     1     129.455 115.023 131.476  0.00  0.00    +0.000 A 
ATOM     33  C25 UNL     1     129.363 114.263 132.604  0.00  0.00    +0.000 A 
ATOM     34  C26 UNL     1     128.221 114.219 133.390  0.00  0.00    +0.000 A 
ATOM     35  C27 UNL     1     127.144 114.982 133.001  0.00  0.00    +0.000 A 
ATOM     36  C28 UNL     1     127.193 115.758 131.879  0.00  0.00    +0.000 A 
ATOM     37  C29 UNL     1     128.368 115.774 131.109  0.00  0.00    +0.000 A 
ENDBRANCH  30  32
BRANCH  26  38
ATOM     38  C2  UNL     1     132.321 112.923 128.048  0.00  0.00    +0.000 C 
BRANCH  38  40
ATOM     39  N1  UNL     1     134.467 112.337 129.147  0.00  0.00    +0.000 N 
ATOM     40  C1  UNL     1     133.766 112.686 127.952  0.00  0.00    +0.000 C 
ATOM     41  O1  UNL     1     134.343 112.792 126.846  0.00  0.00    +0.000 OA
ATOM     42  H1  UNL     1     135.429 112.645 129.363  0.00  0.00    +0.000 HD
ATOM     43  H2  UNL     1     133.976 111.734 129.839  0.00  0.00    +0.000 HD
ENDBRANCH  38  40
ENDBRANCH  26  38
ENDBRANCH   1  29
TORSDOF 9
ENDMDL
MODEL 7
REMARK VINA RESULT:     -11.8      2.830      5.053
REMARK  Name = aganitha_data/bbio_mols_pdbqt/AGAN245-df-15-CN.pdb
REMARK  9 active torsions:
REMARK  status: ('A' for Active; 'I' for Inactive)
REMARK    1  A    between atoms: C1_2  and  C2_4
REMARK    2  A    between atoms: C2_4  and  C3_5
REMARK    3  A    between atoms: C6_8  and  N2_9
REMARK    4  A    between atoms: C7_10  and  C8_12
REMARK    5  A    between atoms: C10_15  and  C11_16
REMARK    6  A    between atoms: C11_16  and  S1_17
REMARK    7  A    between atoms: S1_17  and  C12_20
REMARK    8  A    between atoms: C20_28  and  C21_29
REMARK    9  A    between atoms: C22_33  and  C24_35
REMARK                            x       y       z     vdW  Elec       q    Type
REMARK                         _______ _______ _______ _____ _____    ______ ____
ROOT
ATOM      1  N2  UNL     1     130.003 115.616 132.363  0.00  0.00    +0.000 N 
ATOM      2  C7  UNL     1     129.326 114.880 133.358  0.00  0.00    +0.000 C 
ATOM      3  O2  UNL     1     129.596 113.654 133.368  0.00  0.00    +0.000 OA
ATOM      4  H7  UNL     1     129.796 116.651 132.327  0.00  0.00    +0.000 HD
ENDROOT
BRANCH   2   5
ATOM      5  C8  UNL     1     128.376 115.411 134.336  0.00  0.00    +0.000 A 
ATOM      6  C9  UNL     1     128.710 115.655 135.640  0.00  0.00    +0.000 A 
ATOM      7  F1  UNL     1     129.947 115.347 136.097  0.00  0.00    +0.000 F 
ATOM      8  C10 UNL     1     127.817 116.207 136.588  0.00  0.00    +0.000 A 
ATOM      9  C18 UNL     1     126.568 116.500 136.148  0.00  0.00    +0.000 A 
ATOM     10  C19 UNL     1     126.205 116.266 134.855  0.00  0.00    +0.000 A 
ATOM     11  C20 UNL     1     127.100 115.716 133.915  0.00  0.00    +0.000 A 
BRANCH  11  12
ATOM     12  C21 UNL     1     126.651 115.478 132.545  0.00  0.00    +0.000 C 
ATOM     13  F2  UNL     1     125.240 115.694 132.529  0.00  0.00    +0.000 F 
ATOM     14  F3  UNL     1     127.099 116.383 131.610  0.00  0.00    +0.000 F 
ATOM     15  F4  UNL     1     126.733 114.155 132.131  0.00  0.00    +0.000 F 
ENDBRANCH  11  12
BRANCH   8  16
ATOM     16  C11 UNL     1     128.330 116.446 137.948  0.00  0.00    +0.000 C 
BRANCH  16  17
ATOM     17  S1  UNL     1     129.537 117.684 138.137  0.00  0.00    +0.000 S 
ATOM     18  O3  UNL     1     129.334 118.300 139.521  0.00  0.00    +0.000 OA
ATOM     19  O4  UNL     1     130.940 117.118 138.048  0.00  0.00    +0.000 OA
BRANCH  17  20
ATOM     20  C12 UNL     1     129.452 118.999 137.010  0.00  0.00    +0.000 A 
ATOM     21  C13 UNL     1     130.473 119.330 136.166  0.00  0.00    +0.000 A 
ATOM     22  C14 UNL     1     130.391 120.386 135.258  0.00  0.00    +0.000 A 
ATOM     23  C15 UNL     1     129.263 121.141 135.182  0.00  0.00    +0.000 A 
ATOM     24  C16 UNL     1     128.207 120.843 136.016  0.00  0.00    +0.000 A 
ATOM     25  C17 UNL     1     128.300 119.798 136.908  0.00  0.00    +0.000 A 
ENDBRANCH  17  20
ENDBRANCH  16  17
ENDBRANCH   8  16
ENDBRANCH   2   5
BRANCH   1  29
ATOM     26  C3  UNL     1     132.898 114.349 129.567  0.00  0.00    +0.000 A 
ATOM     27  C4  UNL     1     132.091 113.429 130.172  0.00  0.00    +0.000 A 
ATOM     28  C5  UNL     1     131.112 113.850 131.088  0.00  0.00    +0.000 A 
ATOM     29  C6  UNL     1     130.936 115.172 131.401  0.00  0.00    +0.000 A 
ATOM     30  C22 UNL     1     131.761 116.095 130.781  0.00  0.00    +0.000 A 
ATOM     31  C23 UNL     1     132.736 115.670 129.868  0.00  0.00    +0.000 A 
BRANCH  30  32
ATOM     32  C24 UNL     1     131.580 117.498 131.043  0.00  0.00    +0.000 A 
ATOM     33  C25 UNL     1     130.709 117.928 131.999  0.00  0.00    +0.000 A 
ATOM     34  C26 UNL     1     130.505 119.270 132.283  0.00  0.00    +0.000 A 
ATOM     35  C27 UNL     1     131.223 120.195 131.558  0.00  0.00    +0.000 A 
ATOM     36  C28 UNL     1     132.106 119.809 130.592  0.00  0.00    +0.000 A 
ATOM     37  C29 UNL     1     132.283 118.439 130.334  0.00  0.00    +0.000 A 
ENDBRANCH  30  32
BRANCH  26  38
ATOM     38  C2  UNL     1     133.922 113.897 128.610  0.00  0.00    +0.000 C 
BRANCH  38  40
ATOM     39  N1  UNL     1     136.154 114.554 129.471  0.00  0.00    +0.000 N 
ATOM     40  C1  UNL     1     135.151 113.547 129.331  0.00  0.00    +0.000 C 
ATOM     41  O1  UNL     1     135.291 112.395 129.800  0.00  0.00    +0.000 OA
ATOM     42  H1  UNL     1     137.170 114.365 129.446  0.00  0.00    +0.000 HD
ATOM     43  H2  UNL     1     135.839 115.537 129.606  0.00  0.00    +0.000 HD
ENDBRANCH  38  40
ENDBRANCH  26  38
ENDBRANCH   1  29
TORSDOF 9
ENDMDL
MODEL 8
REMARK VINA RESULT:     -11.6      1.192      1.258
REMARK  Name = aganitha_data/bbio_mols_pdbqt/AGAN245-df-15-CN.pdb
REMARK  9 active torsions:
REMARK  status: ('A' for Active; 'I' for Inactive)
REMARK    1  A    between atoms: C1_2  and  C2_4
REMARK    2  A    between atoms: C2_4  and  C3_5
REMARK    3  A    between atoms: C6_8  and  N2_9
REMARK    4  A    between atoms: C7_10  and  C8_12
REMARK    5  A    between atoms: C10_15  and  C11_16
REMARK    6  A    between atoms: C11_16  and  S1_17
REMARK    7  A    between atoms: S1_17  and  C12_20
REMARK    8  A    between atoms: C20_28  and  C21_29
REMARK    9  A    between atoms: C22_33  and  C24_35
REMARK                            x       y       z     vdW  Elec       q    Type
REMARK                         _______ _______ _______ _____ _____    ______ ____
ROOT
ATOM      1  N2  UNL     1     131.906 116.906 131.344  0.00  0.00    +0.000 N 
ATOM      2  C7  UNL     1     131.418 118.188 131.016  0.00  0.00    +0.000 C 
ATOM      3  O2  UNL     1     131.229 118.371 129.789  0.00  0.00    +0.000 OA
ATOM      4  H7  UNL     1     132.078 116.720 132.369  0.00  0.00    +0.000 HD
ENDROOT
BRANCH   2   5
ATOM      5  C8  UNL     1     131.129 119.273 131.955  0.00  0.00    +0.000 A 
ATOM      6  C9  UNL     1     130.118 119.210 132.874  0.00  0.00    +0.000 A 
ATOM      7  F1  UNL     1     129.290 118.140 132.907  0.00  0.00    +0.000 F 
ATOM      8  C10 UNL     1     129.851 120.231 133.816  0.00  0.00    +0.000 A 
ATOM      9  C18 UNL     1     130.659 121.320 133.779  0.00  0.00    +0.000 A 
ATOM     10  C19 UNL     1     131.674 121.412 132.873  0.00  0.00    +0.000 A 
ATOM     11  C20 UNL     1     131.935 120.391 131.937  0.00  0.00    +0.000 A 
BRANCH  11  12
ATOM     12  C21 UNL     1     133.030 120.549 130.983  0.00  0.00    +0.000 C 
ATOM     13  F2  UNL     1     133.815 121.653 131.434  0.00  0.00    +0.000 F 
ATOM     14  F3  UNL     1     133.947 119.524 130.959  0.00  0.00    +0.000 F 
ATOM     15  F4  UNL     1     132.641 120.984 129.722  0.00  0.00    +0.000 F 
ENDBRANCH  11  12
BRANCH   8  16
ATOM     16  C11 UNL     1     128.749 120.008 134.768  0.00  0.00    +0.000 C 
BRANCH  16  17
ATOM     17  S1  UNL     1     129.167 119.379 136.334  0.00  0.00    +0.000 S 
ATOM     18  O3  UNL     1     130.686 119.204 136.357  0.00  0.00    +0.000 OA
ATOM     19  O4  UNL     1     128.762 120.325 137.446  0.00  0.00    +0.000 OA
BRANCH  17  20
ATOM     20  C12 UNL     1     128.500 117.827 136.727  0.00  0.00    +0.000 A 
ATOM     21  C13 UNL     1     127.262 117.661 137.279  0.00  0.00    +0.000 A 
ATOM     22  C14 UNL     1     126.733 116.407 137.584  0.00  0.00    +0.000 A 
ATOM     23  C15 UNL     1     127.451 115.279 137.337  0.00  0.00    +0.000 A 
ATOM     24  C16 UNL     1     128.706 115.400 136.780  0.00  0.00    +0.000 A 
ATOM     25  C17 UNL     1     129.218 116.643 136.484  0.00  0.00    +0.000 A 
ENDBRANCH  17  20
ENDBRANCH  16  17
ENDBRANCH   8  16
ENDBRANCH   2   5
BRANCH   1  29
ATOM     26  C3  UNL     1     132.638 113.667 128.739  0.00  0.00    +0.000 A 
ATOM     27  C4  UNL     1     133.535 114.695 128.814  0.00  0.00    +0.000 A 
ATOM     28  C5  UNL     1     133.304 115.764 129.695  0.00  0.00    +0.000 A 
ATOM     29  C6  UNL     1     132.194 115.815 130.495  0.00  0.00    +0.000 A 
ATOM     30  C22 UNL     1     131.292 114.767 130.411  0.00  0.00    +0.000 A 
ATOM     31  C23 UNL     1     131.527 113.702 129.530  0.00  0.00    +0.000 A 
BRANCH  30  32
ATOM     32  C24 UNL     1     130.137 114.753 131.269  0.00  0.00    +0.000 A 
ATOM     33  C25 UNL     1     130.173 114.143 132.487  0.00  0.00    +0.000 A 
ATOM     34  C26 UNL     1     129.083 114.108 133.344  0.00  0.00    +0.000 A 
ATOM     35  C27 UNL     1     127.922 114.720 132.930  0.00  0.00    +0.000 A 
ATOM     36  C28 UNL     1     127.840 115.342 131.718  0.00  0.00    +0.000 A 
ATOM     37  C29 UNL     1     128.967 115.355 130.879  0.00  0.00    +0.000 A 
ENDBRANCH  30  32
BRANCH  26  38
ATOM     38  C2  UNL     1     132.889 112.552 127.812  0.00  0.00    +0.000 C 
BRANCH  38  40
ATOM     39  N1  UNL     1     130.744 113.297 126.812  0.00  0.00    +0.000 N 
ATOM     40  C1  UNL     1     131.657 112.232 127.082  0.00  0.00    +0.000 C 
ATOM     41  O1  UNL     1     131.436 111.055 126.716  0.00  0.00    +0.000 OA
ATOM     42  H1  UNL     1     129.716 113.192 126.817  0.00  0.00    +0.000 HD
ATOM     43  H2  UNL     1     131.142 114.235 126.597  0.00  0.00    +0.000 HD
ENDBRANCH  38  40
ENDBRANCH  26  38
ENDBRANCH   1  29
TORSDOF 9
ENDMDL
MODEL 9
REMARK VINA RESULT:     -11.5      0.935      1.296
REMARK  Name = aganitha_data/bbio_mols_pdbqt/AGAN245-df-15-CN.pdb
REMARK  9 active torsions:
REMARK  status: ('A' for Active; 'I' for Inactive)
REMARK    1  A    between atoms: C1_2  and  C2_4
REMARK    2  A    between atoms: C2_4  and  C3_5
REMARK    3  A    between atoms: C6_8  and  N2_9
REMARK    4  A    between atoms: C7_10  and  C8_12
REMARK    5  A    between atoms: C10_15  and  C11_16
REMARK    6  A    between atoms: C11_16  and  S1_17
REMARK    7  A    between atoms: S1_17  and  C12_20
REMARK    8  A    between atoms: C20_28  and  C21_29
REMARK    9  A    between atoms: C22_33  and  C24_35
REMARK                            x       y       z     vdW  Elec       q    Type
REMARK                         _______ _______ _______ _____ _____    ______ ____
ROOT
ATOM      1  N2  UNL     1     131.868 117.541 131.522  0.00  0.00    +0.000 N 
ATOM      2  C7  UNL     1     131.298 118.825 131.400  0.00  0.00    +0.000 C 
ATOM      3  O2  UNL     1     131.096 119.191 130.216  0.00  0.00    +0.000 OA
ATOM      4  H7  UNL     1     132.053 117.205 132.505  0.00  0.00    +0.000 HD
ENDROOT
BRANCH   2   5
ATOM      5  C8  UNL     1     130.942 119.726 132.497  0.00  0.00    +0.000 A 
ATOM      6  C9  UNL     1     129.980 119.425 133.422  0.00  0.00    +0.000 A 
ATOM      7  F1  UNL     1     129.263 118.281 133.314  0.00  0.00    +0.000 F 
ATOM      8  C10 UNL     1     129.652 120.263 134.513  0.00  0.00    +0.000 A 
ATOM      9  C18 UNL     1     130.347 121.423 134.619  0.00  0.00    +0.000 A 
ATOM     10  C19 UNL     1     131.311 121.751 133.712  0.00  0.00    +0.000 A 
ATOM     11  C20 UNL     1     131.633 120.911 132.627  0.00  0.00    +0.000 A 
BRANCH  11  12
ATOM     12  C21 UNL     1     132.667 121.319 131.680  0.00  0.00    +0.000 C 
ATOM     13  F2  UNL     1     133.438 122.336 132.323  0.00  0.00    +0.000 F 
ATOM     14  F3  UNL     1     133.617 120.366 131.393  0.00  0.00    +0.000 F 
ATOM     15  F4  UNL     1     132.195 121.996 130.563  0.00  0.00    +0.000 F 
ENDBRANCH  11  12
BRANCH   8  16
ATOM     16  C11 UNL     1     128.617 119.791 135.448  0.00  0.00    +0.000 C 
BRANCH  16  17
ATOM     17  S1  UNL     1     129.142 118.813 136.787  0.00  0.00    +0.000 S 
ATOM     18  O3  UNL     1     130.449 118.142 136.367  0.00  0.00    +0.000 OA
ATOM     19  O4  UNL     1     129.391 119.647 138.028  0.00  0.00    +0.000 OA
BRANCH  17  20
ATOM     20  C12 UNL     1     128.071 117.529 137.251  0.00  0.00    +0.000 A 
ATOM     21  C13 UNL     1     127.507 116.664 136.357  0.00  0.00    +0.000 A 
ATOM     22  C14 UNL     1     126.653 115.631 136.742  0.00  0.00    +0.000 A 
ATOM     23  C15 UNL     1     126.346 115.446 138.054  0.00  0.00    +0.000 A 
ATOM     24  C16 UNL     1     126.893 116.296 138.990  0.00  0.00    +0.000 A 
ATOM     25  C17 UNL     1     127.734 117.313 138.598  0.00  0.00    +0.000 A 
ENDBRANCH  17  20
ENDBRANCH  16  17
ENDBRANCH   8  16
ENDBRANCH   2   5
BRANCH   1  29
ATOM     26  C3  UNL     1     132.797 114.810 128.442  0.00  0.00    +0.000 A 
ATOM     27  C4  UNL     1     133.596 115.898 128.648  0.00  0.00    +0.000 A 
ATOM     28  C5  UNL     1     133.301 116.798 129.686  0.00  0.00    +0.000 A 
ATOM     29  C6  UNL     1     132.223 116.620 130.512  0.00  0.00    +0.000 A 
ATOM     30  C22 UNL     1     131.421 115.513 130.293  0.00  0.00    +0.000 A 
ATOM     31  C23 UNL     1     131.719 114.618 129.256  0.00  0.00    +0.000 A 
BRANCH  30  32
ATOM     32  C24 UNL     1     130.306 115.259 131.166  0.00  0.00    +0.000 A 
ATOM     33  C25 UNL     1     129.103 115.867 130.965  0.00  0.00    +0.000 A 
ATOM     34  C26 UNL     1     128.003 115.649 131.782  0.00  0.00    +0.000 A 
ATOM     35  C27 UNL     1     128.151 114.779 132.838  0.00  0.00    +0.000 A 
ATOM     36  C28 UNL     1     129.338 114.148 133.077  0.00  0.00    +0.000 A 
ATOM     37  C29 UNL     1     130.428 114.396 132.226  0.00  0.00    +0.000 A 
ENDBRANCH  30  32
BRANCH  26  38
ATOM     38  C2  UNL     1     133.115 113.873 127.351  0.00  0.00    +0.000 C 
BRANCH  38  40
ATOM     39  N1  UNL     1     132.079 111.653 126.965  0.00  0.00    +0.000 N 
ATOM     40  C1  UNL     1     132.875 112.497 127.798  0.00  0.00    +0.000 C 
ATOM     41  O1  UNL     1     133.364 112.098 128.879  0.00  0.00    +0.000 OA
ATOM     42  H1  UNL     1     131.420 110.942 127.324  0.00  0.00    +0.000 HD
ATOM     43  H2  UNL     1     132.171 111.762 125.934  0.00  0.00    +0.000 HD
ENDBRANCH  38  40
ENDBRANCH  26  38
ENDBRANCH   1  29
TORSDOF 9
ENDMDL
