MODEL 1
REMARK VINA RESULT:     -11.0      0.000      0.000
REMARK  Name = aganitha_data/bbio_mols_pdbqt/AGAN-209.pdb
REMARK  7 active torsions:
REMARK  status: ('A' for Active; 'I' for Inactive)
REMARK    1  A    between atoms: C1_2  and  C2_3
REMARK    2  A    between atoms: C2_3  and  C3_4
REMARK    3  A    between atoms: C5_7  and  C6_9
REMARK    4  A    between atoms: N2_17  and  C14_18
REMARK    5  A    between atoms: C14_18  and  O3_19
REMARK    6  A    between atoms: C14_18  and  C30_35
REMARK    7  A    between atoms: O3_19  and  C15_20
REMARK                            x       y       z     vdW  Elec       q    Type
REMARK                         _______ _______ _______ _____ _____    ______ ____
ROOT
ATOM      1  C14 UNL     1     130.968 119.579 133.879  0.00  0.00    +0.000 C 
ENDROOT
BRANCH   1   9
ATOM      2  C3  UNL     1     129.613 118.692 135.657  0.00  0.00    +0.000 C 
ATOM      3  C4  UNL     1     128.419 117.789 135.888  0.00  0.00    +0.000 C 
ATOM      4  N1  UNL     1     128.167 116.911 134.765  0.00  0.00    +0.000 N 
ATOM      5  C5  UNL     1     128.028 115.512 134.925  0.00  0.00    +0.000 C 
ATOM      6  O2  UNL     1     128.125 115.022 136.074  0.00  0.00    +0.000 OA
ATOM      7  C12 UNL     1     128.053 117.462 133.432  0.00  0.00    +0.000 C 
ATOM      8  C13 UNL     1     128.708 118.848 133.492  0.00  0.00    +0.000 C 
ATOM      9  N2  UNL     1     129.904 118.714 134.261  0.00  0.00    +0.000 NA
BRANCH   5  10
ATOM     10  C6  UNL     1     127.776 114.618 133.810  0.00  0.00    +0.000 A 
ATOM     11  C7  UNL     1     126.505 114.284 133.394  0.00  0.00    +0.000 A 
ATOM     12  C8  UNL     1     126.270 113.446 132.348  0.00  0.00    +0.000 A 
ATOM     13  C9  UNL     1     127.330 112.902 131.667  0.00  0.00    +0.000 A 
ATOM     14  C10 UNL     1     128.603 113.219 132.061  0.00  0.00    +0.000 A 
ATOM     15  C11 UNL     1     128.833 114.065 133.117  0.00  0.00    +0.000 A 
ENDBRANCH   5  10
BRANCH   2  16
ATOM     16  C2  UNL     1     130.766 118.081 136.458  0.00  0.00    +0.000 C 
BRANCH  16  18
ATOM     17  O1  UNL     1     130.388 118.559 138.787  0.00  0.00    +0.000 OA
ATOM     18  C1  UNL     1     130.284 117.584 137.796  0.00  0.00    +0.000 C 
ENDBRANCH  16  18
ENDBRANCH   2  16
ENDBRANCH   1   9
BRANCH   1  19
ATOM     19  C30 UNL     1     131.172 120.766 134.745  0.00  0.00    +0.000 C 
ATOM     20  C31 UNL     1     130.211 121.893 134.813  0.00  0.00    +0.000 C 
ATOM     21  C32 UNL     1     131.599 122.079 134.273  0.00  0.00    +0.000 C 
ENDBRANCH   1  19
BRANCH   1  22
ATOM     22  O3  UNL     1     130.834 119.945 132.508  0.00  0.00    +0.000 OA
BRANCH  22  23
ATOM     23  C15 UNL     1     131.943 119.785 131.661  0.00  0.00    +0.000 A 
ATOM     24  C16 UNL     1     132.951 120.708 131.597  0.00  0.00    +0.000 A 
ATOM     25  C17 UNL     1     134.006 120.478 130.739  0.00  0.00    +0.000 A 
ATOM     26  C18 UNL     1     134.058 119.345 129.953  0.00  0.00    +0.000 A 
ATOM     27  C19 UNL     1     133.043 118.386 129.999  0.00  0.00    +0.000 A 
ATOM     28  C20 UNL     1     131.994 118.653 130.878  0.00  0.00    +0.000 A 
ATOM     29  C21 UNL     1     130.826 117.792 131.092  0.00  0.00    +0.000 C 
ATOM     30  C22 UNL     1     130.764 116.490 130.864  0.00  0.00    +0.000 C 
ATOM     31  C23 UNL     1     131.817 115.607 130.355  0.00  0.00    +0.000 A 
ATOM     32  C24 UNL     1     131.571 114.292 130.762  0.00  0.00    +0.000 A 
ATOM     33  C25 UNL     1     132.460 113.315 130.378  0.00  0.00    +0.000 A 
ATOM     34  C26 UNL     1     133.559 113.639 129.612  0.00  0.00    +0.000 A 
ATOM     35  C27 UNL     1     133.808 114.934 129.207  0.00  0.00    +0.000 A 
ATOM     36  C28 UNL     1     132.913 115.941 129.589  0.00  0.00    +0.000 A 
ATOM     37  C29 UNL     1     133.301 117.272 129.085  0.00  0.00    +0.000 C 
ENDBRANCH  22  23
ENDBRANCH   1  22
TORSDOF 7
ENDMDL
MODEL 2
REMARK VINA RESULT:     -10.8      1.581      3.294
REMARK  Name = aganitha_data/bbio_mols_pdbqt/AGAN-209.pdb
REMARK  7 active torsions:
REMARK  status: ('A' for Active; 'I' for Inactive)
REMARK    1  A    between atoms: C1_2  and  C2_3
REMARK    2  A    between atoms: C2_3  and  C3_4
REMARK    3  A    between atoms: C5_7  and  C6_9
REMARK    4  A    between atoms: N2_17  and  C14_18
REMARK    5  A    between atoms: C14_18  and  O3_19
REMARK    6  A    between atoms: C14_18  and  C30_35
REMARK    7  A    between atoms: O3_19  and  C15_20
REMARK                            x       y       z     vdW  Elec       q    Type
REMARK                         _______ _______ _______ _____ _____    ______ ____
ROOT
ATOM      1  C14 UNL     1     129.409 118.811 134.948  0.00  0.00    +0.000 C 
ENDROOT
BRANCH   1   9
ATOM      2  C3  UNL     1     128.500 116.625 135.371  0.00  0.00    +0.000 C 
ATOM      3  C4  UNL     1     128.068 115.370 134.643  0.00  0.00    +0.000 C 
ATOM      4  N1  UNL     1     128.648 115.273 133.320  0.00  0.00    +0.000 N 
ATOM      5  C5  UNL     1     129.341 114.117 132.888  0.00  0.00    +0.000 C 
ATOM      6  O2  UNL     1     129.454 113.150 133.677  0.00  0.00    +0.000 OA
ATOM      7  C12 UNL     1     128.526 116.382 132.399  0.00  0.00    +0.000 C 
ATOM      8  C13 UNL     1     128.190 117.608 133.257  0.00  0.00    +0.000 C 
ATOM      9  N2  UNL     1     129.021 117.548 134.417  0.00  0.00    +0.000 NA
BRANCH   5  10
ATOM     10  C6  UNL     1     129.928 114.005 131.567  0.00  0.00    +0.000 A 
ATOM     11  C7  UNL     1     129.172 113.853 130.425  0.00  0.00    +0.000 A 
ATOM     12  C8  UNL     1     129.724 113.749 129.185  0.00  0.00    +0.000 A 
ATOM     13  C9  UNL     1     131.088 113.794 129.048  0.00  0.00    +0.000 A 
ATOM     14  C10 UNL     1     131.862 113.945 130.168  0.00  0.00    +0.000 A 
ATOM     15  C11 UNL     1     131.299 114.050 131.415  0.00  0.00    +0.000 A 
ENDBRANCH   5  10
BRANCH   2  16
ATOM     16  C2  UNL     1     129.575 116.187 136.368  0.00  0.00    +0.000 C 
BRANCH  16  18
ATOM     17  O1  UNL     1     127.820 115.474 137.853  0.00  0.00    +0.000 OA
ATOM     18  C1  UNL     1     129.027 116.165 137.772  0.00  0.00    +0.000 C 
ENDBRANCH  16  18
ENDBRANCH   2  16
ENDBRANCH   1   9
BRANCH   1  19
ATOM     19  C30 UNL     1     128.703 119.233 136.183  0.00  0.00    +0.000 C 
ATOM     20  C31 UNL     1     128.373 120.646 136.484  0.00  0.00    +0.000 C 
ATOM     21  C32 UNL     1     129.339 119.870 137.331  0.00  0.00    +0.000 C 
ENDBRANCH   1  19
BRANCH   1  22
ATOM     22  O3  UNL     1     129.339 119.811 133.935  0.00  0.00    +0.000 OA
BRANCH  22  23
ATOM     23  C15 UNL     1     130.490 120.566 133.658  0.00  0.00    +0.000 A 
ATOM     24  C16 UNL     1     130.964 121.516 134.521  0.00  0.00    +0.000 A 
ATOM     25  C17 UNL     1     132.102 122.216 134.176  0.00  0.00    +0.000 A 
ATOM     26  C18 UNL     1     132.760 121.976 132.988  0.00  0.00    +0.000 A 
ATOM     27  C19 UNL     1     132.298 121.010 132.088  0.00  0.00    +0.000 A 
ATOM     28  C20 UNL     1     131.147 120.325 132.472  0.00  0.00    +0.000 A 
ATOM     29  C21 UNL     1     130.485 119.273 131.691  0.00  0.00    +0.000 C 
ATOM     30  C22 UNL     1     131.053 118.511 130.771  0.00  0.00    +0.000 C 
ATOM     31  C23 UNL     1     132.446 118.524 130.314  0.00  0.00    +0.000 A 
ATOM     32  C24 UNL     1     132.782 117.276 129.780  0.00  0.00    +0.000 A 
ATOM     33  C25 UNL     1     134.057 117.097 129.298  0.00  0.00    +0.000 A 
ATOM     34  C26 UNL     1     134.970 118.129 129.348  0.00  0.00    +0.000 A 
ATOM     35  C27 UNL     1     134.645 119.363 129.874  0.00  0.00    +0.000 A 
ATOM     36  C28 UNL     1     133.350 119.562 130.369  0.00  0.00    +0.000 A 
ATOM     37  C29 UNL     1     133.144 120.924 130.896  0.00  0.00    +0.000 C 
ENDBRANCH  22  23
ENDBRANCH   1  22
TORSDOF 7
ENDMDL
MODEL 3
REMARK VINA RESULT:      -9.2      1.768      5.013
REMARK  Name = aganitha_data/bbio_mols_pdbqt/AGAN-209.pdb
REMARK  7 active torsions:
REMARK  status: ('A' for Active; 'I' for Inactive)
REMARK    1  A    between atoms: C1_2  and  C2_3
REMARK    2  A    between atoms: C2_3  and  C3_4
REMARK    3  A    between atoms: C5_7  and  C6_9
REMARK    4  A    between atoms: N2_17  and  C14_18
REMARK    5  A    between atoms: C14_18  and  O3_19
REMARK    6  A    between atoms: C14_18  and  C30_35
REMARK    7  A    between atoms: O3_19  and  C15_20
REMARK                            x       y       z     vdW  Elec       q    Type
REMARK                         _______ _______ _______ _____ _____    ______ ____
ROOT
ATOM      1  C14 UNL     1     131.513 118.849 131.945  0.00  0.00    +0.000 C 
ENDROOT
BRANCH   1   9
ATOM      2  C3  UNL     1     130.581 120.600 133.306  0.00  0.00    +0.000 C 
ATOM      3  C4  UNL     1     129.551 120.823 134.393  0.00  0.00    +0.000 C 
ATOM      4  N1  UNL     1     129.213 119.600 135.091  0.00  0.00    +0.000 N 
ATOM      5  C5  UNL     1     129.259 119.505 136.502  0.00  0.00    +0.000 C 
ATOM      6  O2  UNL     1     129.602 120.512 137.164  0.00  0.00    +0.000 OA
ATOM      7  C12 UNL     1     128.817 118.429 134.339  0.00  0.00    +0.000 C 
ATOM      8  C13 UNL     1     129.315 118.659 132.907  0.00  0.00    +0.000 C 
ATOM      9  N2  UNL     1     130.630 119.207 133.003  0.00  0.00    +0.000 NA
BRANCH   5  10
ATOM     10  C6  UNL     1     128.925 118.288 137.216  0.00  0.00    +0.000 A 
ATOM     11  C7  UNL     1     127.650 118.010 137.661  0.00  0.00    +0.000 A 
ATOM     12  C8  UNL     1     127.337 116.867 138.330  0.00  0.00    +0.000 A 
ATOM     13  C9  UNL     1     128.319 115.942 138.581  0.00  0.00    +0.000 A 
ATOM     14  C10 UNL     1     129.593 116.195 138.149  0.00  0.00    +0.000 A 
ATOM     15  C11 UNL     1     129.902 117.349 137.474  0.00  0.00    +0.000 A 
ENDBRANCH   5  10
BRANCH   2  16
ATOM     16  C2  UNL     1     131.913 121.093 133.878  0.00  0.00    +0.000 C 
BRANCH  16  18
ATOM     17  O1  UNL     1     132.841 122.855 135.230  0.00  0.00    +0.000 OA
ATOM     18  C1  UNL     1     131.685 122.131 134.946  0.00  0.00    +0.000 C 
ENDBRANCH  16  18
ENDBRANCH   2  16
ENDBRANCH   1   9
BRANCH   1  19
ATOM     19  C30 UNL     1     132.384 119.939 131.440  0.00  0.00    +0.000 C 
ATOM     20  C31 UNL     1     132.241 120.528 130.087  0.00  0.00    +0.000 C 
ATOM     21  C32 UNL     1     133.470 119.762 130.482  0.00  0.00    +0.000 C 
ENDBRANCH   1  19
BRANCH   1  22
ATOM     22  O3  UNL     1     130.785 118.226 130.889  0.00  0.00    +0.000 OA
BRANCH  22  23
ATOM     23  C15 UNL     1     131.012 116.864 130.633  0.00  0.00    +0.000 A 
ATOM     24  C16 UNL     1     132.268 116.358 130.434  0.00  0.00    +0.000 A 
ATOM     25  C17 UNL     1     132.406 115.008 130.188  0.00  0.00    +0.000 A 
ATOM     26  C18 UNL     1     131.311 114.171 130.139  0.00  0.00    +0.000 A 
ATOM     27  C19 UNL     1     130.016 114.661 130.339  0.00  0.00    +0.000 A 
ATOM     28  C20 UNL     1     129.917 116.029 130.585  0.00  0.00    +0.000 A 
ATOM     29  C21 UNL     1     128.668 116.760 130.825  0.00  0.00    +0.000 C 
ATOM     30  C22 UNL     1     127.535 116.243 131.274  0.00  0.00    +0.000 C 
ATOM     31  C23 UNL     1     127.254 114.851 131.637  0.00  0.00    +0.000 A 
ATOM     32  C24 UNL     1     126.195 114.803 132.548  0.00  0.00    +0.000 A 
ATOM     33  C25 UNL     1     125.786 113.572 133.006  0.00  0.00    +0.000 A 
ATOM     34  C26 UNL     1     126.415 112.425 132.570  0.00  0.00    +0.000 A 
ATOM     35  C27 UNL     1     127.461 112.465 131.671  0.00  0.00    +0.000 A 
ATOM     36  C28 UNL     1     127.889 113.711 131.195  0.00  0.00    +0.000 A 
ATOM     37  C29 UNL     1     129.010 113.603 130.242  0.00  0.00    +0.000 C 
ENDBRANCH  22  23
ENDBRANCH   1  22
TORSDOF 7
ENDMDL
MODEL 4
REMARK VINA RESULT:      -9.1      1.511      3.111
REMARK  Name = aganitha_data/bbio_mols_pdbqt/AGAN-209.pdb
REMARK  7 active torsions:
REMARK  status: ('A' for Active; 'I' for Inactive)
REMARK    1  A    between atoms: C1_2  and  C2_3
REMARK    2  A    between atoms: C2_3  and  C3_4
REMARK    3  A    between atoms: C5_7  and  C6_9
REMARK    4  A    between atoms: N2_17  and  C14_18
REMARK    5  A    between atoms: C14_18  and  O3_19
REMARK    6  A    between atoms: C14_18  and  C30_35
REMARK    7  A    between atoms: O3_19  and  C15_20
REMARK                            x       y       z     vdW  Elec       q    Type
REMARK                         _______ _______ _______ _____ _____    ______ ____
ROOT
ATOM      1  C14 UNL     1     129.782 119.152 135.135  0.00  0.00    +0.000 C 
ENDROOT
BRANCH   1   9
ATOM      2  C3  UNL     1     128.878 117.018 135.778  0.00  0.00    +0.000 C 
ATOM      3  C4  UNL     1     128.316 115.748 135.175  0.00  0.00    +0.000 C 
ATOM      4  N1  UNL     1     128.707 115.576 133.791  0.00  0.00    +0.000 N 
ATOM      5  C5  UNL     1     129.302 114.380 133.324  0.00  0.00    +0.000 C 
ATOM      6  O2  UNL     1     129.495 113.444 134.135  0.00  0.00    +0.000 OA
ATOM      7  C12 UNL     1     128.492 116.648 132.844  0.00  0.00    +0.000 C 
ATOM      8  C13 UNL     1     128.311 117.920 133.682  0.00  0.00    +0.000 C 
ATOM      9  N2  UNL     1     129.290 117.881 134.721  0.00  0.00    +0.000 NA
BRANCH   5  10
ATOM     10  C6  UNL     1     129.701 114.192 131.942  0.00  0.00    +0.000 A 
ATOM     11  C7  UNL     1     131.020 114.112 131.550  0.00  0.00    +0.000 A 
ATOM     12  C8  UNL     1     131.392 113.935 130.254  0.00  0.00    +0.000 A 
ATOM     13  C9  UNL     1     130.429 113.829 129.283  0.00  0.00    +0.000 A 
ATOM     14  C10 UNL     1     129.111 113.905 129.647  0.00  0.00    +0.000 A 
ATOM     15  C11 UNL     1     128.741 114.083 130.956  0.00  0.00    +0.000 A 
ENDBRANCH   5  10
BRANCH   2  16
ATOM     16  C2  UNL     1     130.067 116.585 136.641  0.00  0.00    +0.000 C 
BRANCH  16  18
ATOM     17  O1  UNL     1     130.482 116.093 138.960  0.00  0.00    +0.000 OA
ATOM     18  C1  UNL     1     129.596 115.907 137.901  0.00  0.00    +0.000 C 
ENDBRANCH  16  18
ENDBRANCH   2  16
ENDBRANCH   1   9
BRANCH   1  19
ATOM     19  C30 UNL     1     129.222 119.674 136.406  0.00  0.00    +0.000 C 
ATOM     20  C31 UNL     1     127.880 119.299 136.912  0.00  0.00    +0.000 C 
ATOM     21  C32 UNL     1     128.198 120.708 136.503  0.00  0.00    +0.000 C 
ENDBRANCH   1  19
BRANCH   1  22
ATOM     22  O3  UNL     1     129.652 120.096 134.076  0.00  0.00    +0.000 OA
BRANCH  22  23
ATOM     23  C15 UNL     1     130.796 120.797 133.659  0.00  0.00    +0.000 A 
ATOM     24  C16 UNL     1     131.355 121.794 134.411  0.00  0.00    +0.000 A 
ATOM     25  C17 UNL     1     132.479 122.434 133.931  0.00  0.00    +0.000 A 
ATOM     26  C18 UNL     1     133.040 122.089 132.719  0.00  0.00    +0.000 A 
ATOM     27  C19 UNL     1     132.489 121.074 131.930  0.00  0.00    +0.000 A 
ATOM     28  C20 UNL     1     131.355 120.451 132.449  0.00  0.00    +0.000 A 
ATOM     29  C21 UNL     1     130.612 119.364 131.800  0.00  0.00    +0.000 C 
ATOM     30  C22 UNL     1     131.091 118.521 130.900  0.00  0.00    +0.000 C 
ATOM     31  C23 UNL     1     132.446 118.461 130.342  0.00  0.00    +0.000 A 
ATOM     32  C24 UNL     1     132.712 117.169 129.880  0.00  0.00    +0.000 A 
ATOM     33  C25 UNL     1     133.943 116.919 129.320  0.00  0.00    +0.000 A 
ATOM     34  C26 UNL     1     134.880 117.926 129.225  0.00  0.00    +0.000 A 
ATOM     35  C27 UNL     1     134.624 119.203 129.679  0.00  0.00    +0.000 A 
ATOM     36  C28 UNL     1     133.375 119.474 130.252  0.00  0.00    +0.000 A 
ATOM     37  C29 UNL     1     133.240 120.877 130.690  0.00  0.00    +0.000 C 
ENDBRANCH  22  23
ENDBRANCH   1  22
TORSDOF 7
ENDMDL
MODEL 5
REMARK VINA RESULT:      -9.0      0.770      1.160
REMARK  Name = aganitha_data/bbio_mols_pdbqt/AGAN-209.pdb
REMARK  7 active torsions:
REMARK  status: ('A' for Active; 'I' for Inactive)
REMARK    1  A    between atoms: C1_2  and  C2_3
REMARK    2  A    between atoms: C2_3  and  C3_4
REMARK    3  A    between atoms: C5_7  and  C6_9
REMARK    4  A    between atoms: N2_17  and  C14_18
REMARK    5  A    between atoms: C14_18  and  O3_19
REMARK    6  A    between atoms: C14_18  and  C30_35
REMARK    7  A    between atoms: O3_19  and  C15_20
REMARK                            x       y       z     vdW  Elec       q    Type
REMARK                         _______ _______ _______ _____ _____    ______ ____
ROOT
ATOM      1  C14 UNL     1     130.322 119.715 134.173  0.00  0.00    +0.000 C 
ENDROOT
BRANCH   1   9
ATOM      2  C3  UNL     1     129.259 118.314 135.814  0.00  0.00    +0.000 C 
ATOM      3  C4  UNL     1     128.262 117.180 135.924  0.00  0.00    +0.000 C 
ATOM      4  N1  UNL     1     128.100 116.465 134.676  0.00  0.00    +0.000 N 
ATOM      5  C5  UNL     1     128.222 115.058 134.597  0.00  0.00    +0.000 C 
ATOM      6  O2  UNL     1     128.477 114.414 135.641  0.00  0.00    +0.000 OA
ATOM      7  C12 UNL     1     127.807 117.196 133.462  0.00  0.00    +0.000 C 
ATOM      8  C13 UNL     1     128.208 118.650 133.738  0.00  0.00    +0.000 C 
ATOM      9  N2  UNL     1     129.454 118.617 134.434  0.00  0.00    +0.000 NA
BRANCH   5  10
ATOM     10  C6  UNL     1     128.064 114.327 133.354  0.00  0.00    +0.000 A 
ATOM     11  C7  UNL     1     129.095 114.150 132.456  0.00  0.00    +0.000 A 
ATOM     12  C8  UNL     1     128.946 113.463 131.291  0.00  0.00    +0.000 A 
ATOM     13  C9  UNL     1     127.726 112.918 130.980  0.00  0.00    +0.000 A 
ATOM     14  C10 UNL     1     126.686 113.080 131.855  0.00  0.00    +0.000 A 
ATOM     15  C11 UNL     1     126.843 113.773 133.030  0.00  0.00    +0.000 A 
ENDBRANCH   5  10
BRANCH   2  16
ATOM     16  C2  UNL     1     130.550 117.806 136.461  0.00  0.00    +0.000 C 
BRANCH  16  18
ATOM     17  O1  UNL     1     129.519 118.839 138.376  0.00  0.00    +0.000 OA
ATOM     18  C1  UNL     1     130.475 117.912 137.962  0.00  0.00    +0.000 C 
ENDBRANCH  16  18
ENDBRANCH   2  16
ENDBRANCH   1   9
BRANCH   1  19
ATOM     19  C30 UNL     1     130.172 120.881 135.079  0.00  0.00    +0.000 C 
ATOM     20  C31 UNL     1     128.903 121.210 135.770  0.00  0.00    +0.000 C 
ATOM     21  C32 UNL     1     129.491 122.123 134.734  0.00  0.00    +0.000 C 
ENDBRANCH   1  19
BRANCH   1  22
ATOM     22  O3  UNL     1     130.228 120.098 132.803  0.00  0.00    +0.000 OA
BRANCH  22  23
ATOM     23  C15 UNL     1     131.410 120.184 132.050  0.00  0.00    +0.000 A 
ATOM     24  C16 UNL     1     132.286 121.227 132.183  0.00  0.00    +0.000 A 
ATOM     25  C17 UNL     1     133.426 121.238 131.406  0.00  0.00    +0.000 A 
ATOM     26  C18 UNL     1     133.691 120.226 130.506  0.00  0.00    +0.000 A 
ATOM     27  C19 UNL     1     132.813 119.149 130.349  0.00  0.00    +0.000 A 
ATOM     28  C20 UNL     1     131.674 119.173 131.152  0.00  0.00    +0.000 A 
ATOM     29  C21 UNL     1     130.619 118.153 131.160  0.00  0.00    +0.000 C 
ATOM     30  C22 UNL     1     130.751 116.892 130.782  0.00  0.00    +0.000 C 
ATOM     31  C23 UNL     1     131.950 116.216 130.276  0.00  0.00    +0.000 A 
ATOM     32  C24 UNL     1     131.853 114.841 130.509  0.00  0.00    +0.000 A 
ATOM     33  C25 UNL     1     132.891 114.037 130.101  0.00  0.00    +0.000 A 
ATOM     34  C26 UNL     1     133.993 114.588 129.482  0.00  0.00    +0.000 A 
ATOM     35  C27 UNL     1     134.095 115.944 129.249  0.00  0.00    +0.000 A 
ATOM     36  C28 UNL     1     133.046 116.776 129.658  0.00  0.00    +0.000 A 
ATOM     37  C29 UNL     1     133.288 118.197 129.344  0.00  0.00    +0.000 C 
ENDBRANCH  22  23
ENDBRANCH   1  22
TORSDOF 7
ENDMDL
MODEL 6
REMARK VINA RESULT:      -8.9      2.194      6.734
REMARK  Name = aganitha_data/bbio_mols_pdbqt/AGAN-209.pdb
REMARK  7 active torsions:
REMARK  status: ('A' for Active; 'I' for Inactive)
REMARK    1  A    between atoms: C1_2  and  C2_3
REMARK    2  A    between atoms: C2_3  and  C3_4
REMARK    3  A    between atoms: C5_7  and  C6_9
REMARK    4  A    between atoms: N2_17  and  C14_18
REMARK    5  A    between atoms: C14_18  and  O3_19
REMARK    6  A    between atoms: C14_18  and  C30_35
REMARK    7  A    between atoms: O3_19  and  C15_20
REMARK                            x       y       z     vdW  Elec       q    Type
REMARK                         _______ _______ _______ _____ _____    ______ ____
ROOT
ATOM      1  C14 UNL     1     131.337 119.277 132.104  0.00  0.00    +0.000 C 
ENDROOT
BRANCH   1   9
ATOM      2  C3  UNL     1     130.028 117.359 131.478  0.00  0.00    +0.000 C 
ATOM      3  C4  UNL     1     130.093 116.125 130.603  0.00  0.00    +0.000 C 
ATOM      4  N1  UNL     1     131.453 115.768 130.255  0.00  0.00    +0.000 N 
ATOM      5  C5  UNL     1     131.959 114.462 130.458  0.00  0.00    +0.000 C 
ATOM      6  O2  UNL     1     131.206 113.592 130.954  0.00  0.00    +0.000 OA
ATOM      7  C12 UNL     1     132.334 116.762 129.683  0.00  0.00    +0.000 C 
ATOM      8  C13 UNL     1     131.714 118.122 130.027  0.00  0.00    +0.000 C 
ATOM      9  N2  UNL     1     131.271 118.052 131.382  0.00  0.00    +0.000 NA
BRANCH   5  10
ATOM     10  C6  UNL     1     133.318 114.088 130.117  0.00  0.00    +0.000 A 
ATOM     11  C7  UNL     1     134.290 115.014 129.803  0.00  0.00    +0.000 A 
ATOM     12  C8  UNL     1     135.565 114.662 129.484  0.00  0.00    +0.000 A 
ATOM     13  C9  UNL     1     135.916 113.336 129.467  0.00  0.00    +0.000 A 
ATOM     14  C10 UNL     1     134.968 112.397 129.775  0.00  0.00    +0.000 A 
ATOM     15  C11 UNL     1     133.684 112.758 130.097  0.00  0.00    +0.000 A 
ENDBRANCH   5  10
BRANCH   2  16
ATOM     16  C2  UNL     1     129.779 116.854 132.902  0.00  0.00    +0.000 C 
BRANCH  16  18
ATOM     17  O1  UNL     1     129.119 114.777 133.923  0.00  0.00    +0.000 OA
ATOM     18  C1  UNL     1     128.840 115.676 132.895  0.00  0.00    +0.000 C 
ENDBRANCH  16  18
ENDBRANCH   2  16
ENDBRANCH   1   9
BRANCH   1  19
ATOM     19  C30 UNL     1     132.492 120.152 131.780  0.00  0.00    +0.000 C 
ATOM     20  C31 UNL     1     132.546 121.587 132.144  0.00  0.00    +0.000 C 
ATOM     21  C32 UNL     1     132.511 121.144 130.710  0.00  0.00    +0.000 C 
ENDBRANCH   1  19
BRANCH   1  22
ATOM     22  O3  UNL     1     131.245 119.026 133.505  0.00  0.00    +0.000 OA
BRANCH  22  23
ATOM     23  C15 UNL     1     130.272 119.717 134.245  0.00  0.00    +0.000 A 
ATOM     24  C16 UNL     1     129.733 120.900 133.818  0.00  0.00    +0.000 A 
ATOM     25  C17 UNL     1     128.782 121.516 134.604  0.00  0.00    +0.000 A 
ATOM     26  C18 UNL     1     128.373 120.966 135.801  0.00  0.00    +0.000 A 
ATOM     27  C19 UNL     1     128.907 119.759 136.262  0.00  0.00    +0.000 A 
ATOM     28  C20 UNL     1     129.865 119.166 135.440  0.00  0.00    +0.000 A 
ATOM     29  C21 UNL     1     130.558 117.903 135.718  0.00  0.00    +0.000 C 
ATOM     30  C22 UNL     1     130.120 116.929 136.500  0.00  0.00    +0.000 C 
ATOM     31  C23 UNL     1     128.868 116.869 137.262  0.00  0.00    +0.000 A 
ATOM     32  C24 UNL     1     128.518 115.536 137.495  0.00  0.00    +0.000 A 
ATOM     33  C25 UNL     1     127.365 115.280 138.199  0.00  0.00    +0.000 A 
ATOM     34  C26 UNL     1     126.585 116.321 138.655  0.00  0.00    +0.000 A 
ATOM     35  C27 UNL     1     126.924 117.638 138.429  0.00  0.00    +0.000 A 
ATOM     36  C28 UNL     1     128.095 117.916 137.714  0.00  0.00    +0.000 A 
ATOM     37  C29 UNL     1     128.334 119.363 137.549  0.00  0.00    +0.000 C 
ENDBRANCH  22  23
ENDBRANCH   1  22
TORSDOF 7
ENDMDL
MODEL 7
REMARK VINA RESULT:      -8.6      1.765      3.893
REMARK  Name = aganitha_data/bbio_mols_pdbqt/AGAN-209.pdb
REMARK  7 active torsions:
REMARK  status: ('A' for Active; 'I' for Inactive)
REMARK    1  A    between atoms: C1_2  and  C2_3
REMARK    2  A    between atoms: C2_3  and  C3_4
REMARK    3  A    between atoms: C5_7  and  C6_9
REMARK    4  A    between atoms: N2_17  and  C14_18
REMARK    5  A    between atoms: C14_18  and  O3_19
REMARK    6  A    between atoms: C14_18  and  C30_35
REMARK    7  A    between atoms: O3_19  and  C15_20
REMARK                            x       y       z     vdW  Elec       q    Type
REMARK                         _______ _______ _______ _____ _____    ______ ____
ROOT
ATOM      1  C14 UNL     1     130.422 119.324 133.063  0.00  0.00    +0.000 C 
ENDROOT
BRANCH   1   9
ATOM      2  C3  UNL     1     129.645 117.057 133.259  0.00  0.00    +0.000 C 
ATOM      3  C4  UNL     1     129.376 115.991 134.301  0.00  0.00    +0.000 C 
ATOM      4  N1  UNL     1     129.219 116.546 135.629  0.00  0.00    +0.000 N 
ATOM      5  C5  UNL     1     128.100 116.244 136.440  0.00  0.00    +0.000 C 
ATOM      6  O2  UNL     1     127.219 115.474 135.992  0.00  0.00    +0.000 OA
ATOM      7  C12 UNL     1     130.228 117.438 136.159  0.00  0.00    +0.000 C 
ATOM      8  C13 UNL     1     131.017 117.949 134.947  0.00  0.00    +0.000 C 
ATOM      9  N2  UNL     1     130.067 118.246 133.923  0.00  0.00    +0.000 NA
BRANCH   5  10
ATOM     10  C6  UNL     1     127.928 116.793 137.771  0.00  0.00    +0.000 A 
ATOM     11  C7  UNL     1     128.609 117.906 138.214  0.00  0.00    +0.000 A 
ATOM     12  C8  UNL     1     128.446 118.420 139.463  0.00  0.00    +0.000 A 
ATOM     13  C9  UNL     1     127.572 117.819 140.332  0.00  0.00    +0.000 A 
ATOM     14  C10 UNL     1     126.883 116.711 139.916  0.00  0.00    +0.000 A 
ATOM     15  C11 UNL     1     127.051 116.197 138.655  0.00  0.00    +0.000 A 
ENDBRANCH   5  10
BRANCH   2  16
ATOM     16  C2  UNL     1     128.320 117.270 132.522  0.00  0.00    +0.000 C 
BRANCH  16  18
ATOM     17  O1  UNL     1     126.354 115.881 132.489  0.00  0.00    +0.000 OA
ATOM     18  C1  UNL     1     127.701 115.950 132.140  0.00  0.00    +0.000 C 
ENDBRANCH  16  18
ENDBRANCH   2  16
ENDBRANCH   1   9
BRANCH   1  19
ATOM     19  C30 UNL     1     129.610 120.557 133.211  0.00  0.00    +0.000 C 
ATOM     20  C31 UNL     1     129.893 121.595 134.231  0.00  0.00    +0.000 C 
ATOM     21  C32 UNL     1     128.628 120.787 134.266  0.00  0.00    +0.000 C 
ENDBRANCH   1  19
BRANCH   1  22
ATOM     22  O3  UNL     1     130.461 118.879 131.709  0.00  0.00    +0.000 OA
BRANCH  22  23
ATOM     23  C15 UNL     1     131.695 118.879 131.040  0.00  0.00    +0.000 A 
ATOM     24  C16 UNL     1     132.532 119.962 131.052  0.00  0.00    +0.000 A 
ATOM     25  C17 UNL     1     133.727 119.884 130.368  0.00  0.00    +0.000 A 
ATOM     26  C18 UNL     1     134.087 118.744 129.680  0.00  0.00    +0.000 A 
ATOM     27  C19 UNL     1     133.252 117.622 129.651  0.00  0.00    +0.000 A 
ATOM     28  C20 UNL     1     132.054 117.740 130.353  0.00  0.00    +0.000 A 
ATOM     29  C21 UNL     1     131.028 116.697 130.463  0.00  0.00    +0.000 C 
ATOM     30  C22 UNL     1     131.221 115.395 130.321  0.00  0.00    +0.000 C 
ATOM     31  C23 UNL     1     132.472 114.690 130.029  0.00  0.00    +0.000 A 
ATOM     32  C24 UNL     1     132.393 113.372 130.490  0.00  0.00    +0.000 A 
ATOM     33  C25 UNL     1     133.480 112.551 130.304  0.00  0.00    +0.000 A 
ATOM     34  C26 UNL     1     134.612 113.030 129.679  0.00  0.00    +0.000 A 
ATOM     35  C27 UNL     1     134.697 114.328 129.221  0.00  0.00    +0.000 A 
ATOM     36  C28 UNL     1     133.598 115.177 129.402  0.00  0.00    +0.000 A 
ATOM     37  C29 UNL     1     133.828 116.531 128.864  0.00  0.00    +0.000 C 
ENDBRANCH  22  23
ENDBRANCH   1  22
TORSDOF 7
ENDMDL
MODEL 8
REMARK VINA RESULT:      -8.5      2.135      5.969
REMARK  Name = aganitha_data/bbio_mols_pdbqt/AGAN-209.pdb
REMARK  7 active torsions:
REMARK  status: ('A' for Active; 'I' for Inactive)
REMARK    1  A    between atoms: C1_2  and  C2_3
REMARK    2  A    between atoms: C2_3  and  C3_4
REMARK    3  A    between atoms: C5_7  and  C6_9
REMARK    4  A    between atoms: N2_17  and  C14_18
REMARK    5  A    between atoms: C14_18  and  O3_19
REMARK    6  A    between atoms: C14_18  and  C30_35
REMARK    7  A    between atoms: O3_19  and  C15_20
REMARK                            x       y       z     vdW  Elec       q    Type
REMARK                         _______ _______ _______ _____ _____    ______ ____
ROOT
ATOM      1  C14 UNL     1     130.673 115.363 130.686  0.00  0.00    +0.000 C 
ENDROOT
BRANCH   1   9
ATOM      2  C3  UNL     1     128.453 114.522 131.073  0.00  0.00    +0.000 C 
ATOM      3  C4  UNL     1     127.570 114.001 132.187  0.00  0.00    +0.000 C 
ATOM      4  N1  UNL     1     128.041 114.402 133.496  0.00  0.00    +0.000 N 
ATOM      5  C5  UNL     1     127.193 115.035 134.436  0.00  0.00    +0.000 C 
ATOM      6  O2  UNL     1     125.999 115.252 134.122  0.00  0.00    +0.000 OA
ATOM      7  C12 UNL     1     129.416 114.157 133.871  0.00  0.00    +0.000 C 
ATOM      8  C13 UNL     1     130.178 113.935 132.559  0.00  0.00    +0.000 C 
ATOM      9  N2  UNL     1     129.707 114.911 131.629  0.00  0.00    +0.000 NA
BRANCH   5  10
ATOM     10  C6  UNL     1     127.649 115.443 135.750  0.00  0.00    +0.000 A 
ATOM     11  C7  UNL     1     128.966 115.743 136.023  0.00  0.00    +0.000 A 
ATOM     12  C8  UNL     1     129.393 116.127 137.257  0.00  0.00    +0.000 A 
ATOM     13  C9  UNL     1     128.489 116.225 138.284  0.00  0.00    +0.000 A 
ATOM     14  C10 UNL     1     127.174 115.932 138.038  0.00  0.00    +0.000 A 
ATOM     15  C11 UNL     1     126.749 115.546 136.792  0.00  0.00    +0.000 A 
ENDBRANCH   5  10
BRANCH   2  16
ATOM     16  C2  UNL     1     127.713 115.720 130.472  0.00  0.00    +0.000 C 
BRANCH  16  18
ATOM     17  O1  UNL     1     128.103 117.432 132.120  0.00  0.00    +0.000 OA
ATOM     18  C1  UNL     1     127.141 116.595 131.558  0.00  0.00    +0.000 C 
ENDBRANCH  16  18
ENDBRANCH   2  16
ENDBRANCH   1   9
BRANCH   1  19
ATOM     19  C30 UNL     1     131.295 114.307 129.848  0.00  0.00    +0.000 C 
ATOM     20  C31 UNL     1     132.411 113.453 130.320  0.00  0.00    +0.000 C 
ATOM     21  C32 UNL     1     132.590 114.423 129.188  0.00  0.00    +0.000 C 
ENDBRANCH   1  19
BRANCH   1  22
ATOM     22  O3  UNL     1     131.656 116.165 131.337  0.00  0.00    +0.000 OA
BRANCH  22  23
ATOM     23  C15 UNL     1     131.697 117.538 131.049  0.00  0.00    +0.000 A 
ATOM     24  C16 UNL     1     131.948 118.013 129.791  0.00  0.00    +0.000 A 
ATOM     25  C17 UNL     1     131.972 119.378 129.590  0.00  0.00    +0.000 A 
ATOM     26  C18 UNL     1     131.749 120.260 130.627  0.00  0.00    +0.000 A 
ATOM     27  C19 UNL     1     131.490 119.802 131.923  0.00  0.00    +0.000 A 
ATOM     28  C20 UNL     1     131.474 118.418 132.085  0.00  0.00    +0.000 A 
ATOM     29  C21 UNL     1     131.223 117.714 133.348  0.00  0.00    +0.000 C 
ATOM     30  C22 UNL     1     130.564 118.194 134.391  0.00  0.00    +0.000 C 
ATOM     31  C23 UNL     1     129.937 119.511 134.541  0.00  0.00    +0.000 A 
ATOM     32  C24 UNL     1     128.916 119.444 135.493  0.00  0.00    +0.000 A 
ATOM     33  C25 UNL     1     128.208 120.590 135.770  0.00  0.00    +0.000 A 
ATOM     34  C26 UNL     1     128.509 121.766 135.116  0.00  0.00    +0.000 A 
ATOM     35  C27 UNL     1     129.514 121.839 134.175  0.00  0.00    +0.000 A 
ATOM     36  C28 UNL     1     130.245 120.681 133.882  0.00  0.00    +0.000 A 
ATOM     37  C29 UNL     1     131.287 120.906 132.862  0.00  0.00    +0.000 C 
ENDBRANCH  22  23
ENDBRANCH   1  22
TORSDOF 7
ENDMDL
MODEL 9
REMARK VINA RESULT:      -8.4      2.299      6.243
REMARK  Name = aganitha_data/bbio_mols_pdbqt/AGAN-209.pdb
REMARK  7 active torsions:
REMARK  status: ('A' for Active; 'I' for Inactive)
REMARK    1  A    between atoms: C1_2  and  C2_3
REMARK    2  A    between atoms: C2_3  and  C3_4
REMARK    3  A    between atoms: C5_7  and  C6_9
REMARK    4  A    between atoms: N2_17  and  C14_18
REMARK    5  A    between atoms: C14_18  and  O3_19
REMARK    6  A    between atoms: C14_18  and  C30_35
REMARK    7  A    between atoms: O3_19  and  C15_20
REMARK                            x       y       z     vdW  Elec       q    Type
REMARK                         _______ _______ _______ _____ _____    ______ ____
ROOT
ATOM      1  C14 UNL     1     131.222 119.633 132.191  0.00  0.00    +0.000 C 
ENDROOT
BRANCH   1   9
ATOM      2  C3  UNL     1     131.967 117.709 130.955  0.00  0.00    +0.000 C 
ATOM      3  C4  UNL     1     131.737 116.216 130.852  0.00  0.00    +0.000 C 
ATOM      4  N1  UNL     1     130.470 115.813 131.423  0.00  0.00    +0.000 N 
ATOM      5  C5  UNL     1     129.540 115.024 130.705  0.00  0.00    +0.000 C 
ATOM      6  O2  UNL     1     129.826 114.665 129.539  0.00  0.00    +0.000 OA
ATOM      7  C12 UNL     1     130.126 116.221 132.768  0.00  0.00    +0.000 C 
ATOM      8  C13 UNL     1     131.038 117.410 133.094  0.00  0.00    +0.000 C 
ATOM      9  N2  UNL     1     131.076 118.240 131.933  0.00  0.00    +0.000 NA
BRANCH   5  10
ATOM     10  C6  UNL     1     128.266 114.613 131.263  0.00  0.00    +0.000 A 
ATOM     11  C7  UNL     1     127.328 115.512 131.721  0.00  0.00    +0.000 A 
ATOM     12  C8  UNL     1     126.132 115.126 132.244  0.00  0.00    +0.000 A 
ATOM     13  C9  UNL     1     125.832 113.790 132.326  0.00  0.00    +0.000 A 
ATOM     14  C10 UNL     1     126.748 112.876 131.877  0.00  0.00    +0.000 A 
ATOM     15  C11 UNL     1     127.951 113.273 131.350  0.00  0.00    +0.000 A 
ENDBRANCH   5  10
BRANCH   2  16
ATOM     16  C2  UNL     1     131.675 118.279 129.565  0.00  0.00    +0.000 C 
BRANCH  16  18
ATOM     17  O1  UNL     1     134.062 117.982 129.473  0.00  0.00    +0.000 OA
ATOM     18  C1  UNL     1     132.940 118.390 128.754  0.00  0.00    +0.000 C 
ENDBRANCH  16  18
ENDBRANCH   2  16
ENDBRANCH   1   9
BRANCH   1  19
ATOM     19  C30 UNL     1     132.292 120.319 131.423  0.00  0.00    +0.000 C 
ATOM     20  C31 UNL     1     132.877 121.617 131.835  0.00  0.00    +0.000 C 
ATOM     21  C32 UNL     1     132.087 121.481 130.566  0.00  0.00    +0.000 C 
ENDBRANCH   1  19
BRANCH   1  22
ATOM     22  O3  UNL     1     131.352 119.861 133.592  0.00  0.00    +0.000 OA
BRANCH  22  23
ATOM     23  C15 UNL     1     130.244 120.362 134.294  0.00  0.00    +0.000 A 
ATOM     24  C16 UNL     1     129.486 121.397 133.819  0.00  0.00    +0.000 A 
ATOM     25  C17 UNL     1     128.413 121.831 134.569  0.00  0.00    +0.000 A 
ATOM     26  C18 UNL     1     128.097 121.245 135.777  0.00  0.00    +0.000 A 
ATOM     27  C19 UNL     1     128.854 120.185 136.287  0.00  0.00    +0.000 A 
ATOM     28  C20 UNL     1     129.930 119.775 135.500  0.00  0.00    +0.000 A 
ATOM     29  C21 UNL     1     130.857 118.687 135.831  0.00  0.00    +0.000 C 
ATOM     30  C22 UNL     1     130.609 117.669 136.638  0.00  0.00    +0.000 C 
ATOM     31  C23 UNL     1     129.378 117.379 137.382  0.00  0.00    +0.000 A 
ATOM     32  C24 UNL     1     129.300 116.010 137.654  0.00  0.00    +0.000 A 
ATOM     33  C25 UNL     1     128.207 115.545 138.347  0.00  0.00    +0.000 A 
ATOM     34  C26 UNL     1     127.223 116.419 138.757  0.00  0.00    +0.000 A 
ATOM     35  C27 UNL     1     127.294 117.771 138.492  0.00  0.00    +0.000 A 
ATOM     36  C28 UNL     1     128.400 118.260 137.786  0.00  0.00    +0.000 A 
ATOM     37  C29 UNL     1     128.345 119.719 137.577  0.00  0.00    +0.000 C 
ENDBRANCH  22  23
ENDBRANCH   1  22
TORSDOF 7
ENDMDL
