MODEL 1
REMARK VINA RESULT:     -10.7      0.000      0.000
REMARK  Name = aganitha_data/bbio_mols_pdbqt/BB_30.pdb
REMARK  9 active torsions:
REMARK  status: ('A' for Active; 'I' for Inactive)
REMARK    1  A    between atoms: C1_1  and  N1_2
REMARK    2  A    between atoms: N1_2  and  C10_12
REMARK    3  A    between atoms: C2_3  and  C3_4
REMARK    4  A    between atoms: C6_7  and  C7_8
REMARK    5  A    between atoms: C13_15  and  C14_16
REMARK    6  A    between atoms: C16_21  and  N2_22
REMARK    7  A    between atoms: N2_22  and  S1_23
REMARK    8  A    between atoms: S1_23  and  C17_24
REMARK    9  A    between atoms: C20_27  and  C21_28
REMARK                            x       y       z     vdW  Elec       q    Type
REMARK                         _______ _______ _______ _____ _____    ______ ____
ROOT
ATOM      1  C10 UNL     1     128.993 118.658 135.568  0.00  0.00    +0.000 A 
ATOM      2  C11 UNL     1     128.641 119.460 136.667  0.00  0.00    +0.000 A 
ATOM      3  C12 UNL     1     128.038 118.905 137.786  0.00  0.00    +0.000 A 
ATOM      4  C13 UNL     1     127.772 117.565 137.847  0.00  0.00    +0.000 A 
ATOM      5  C15 UNL     1     128.125 116.777 136.774  0.00  0.00    +0.000 A 
ATOM      6  C16 UNL     1     128.744 117.307 135.621  0.00  0.00    +0.000 A 
ENDROOT
BRANCH   1   8
ATOM      7  C1  UNL     1     128.634 120.124 133.503  0.00  0.00    +0.000 C 
ATOM      8  N1  UNL     1     129.426 119.278 134.371  0.00  0.00    +0.000 N 
ATOM      9  C2  UNL     1     130.847 119.172 134.068  0.00  0.00    +0.000 C 
ATOM     10  O1  UNL     1     131.642 118.743 134.951  0.00  0.00    +0.000 OA
BRANCH   9  11
ATOM     11  C3  UNL     1     131.451 119.539 132.805  0.00  0.00    +0.000 A 
ATOM     12  C4  UNL     1     131.628 118.507 131.867  0.00  0.00    +0.000 A 
ATOM     13  C5  UNL     1     132.217 118.716 130.642  0.00  0.00    +0.000 A 
ATOM     14  C6  UNL     1     132.673 119.958 130.260  0.00  0.00    +0.000 A 
ATOM     15  C7  UNL     1     133.369 120.155 128.945  0.00  0.00    +0.000 C 
ATOM     16  C8  UNL     1     132.498 120.973 131.166  0.00  0.00    +0.000 A 
ATOM     17  C9  UNL     1     131.898 120.774 132.416  0.00  0.00    +0.000 A 
ENDBRANCH   9  11
ENDBRANCH   1   8
BRANCH   4  18
ATOM     18  C14 UNL     1     127.046 116.949 139.010  0.00  0.00    +0.000 C 
ATOM     19  F1  UNL     1     125.720 116.857 138.761  0.00  0.00    +0.000 F 
ATOM     20  F2  UNL     1     127.267 117.610 140.186  0.00  0.00    +0.000 F 
ATOM     21  F3  UNL     1     127.496 115.606 139.118  0.00  0.00    +0.000 F 
ENDBRANCH   4  18
BRANCH   6  22
ATOM     22  N2  UNL     1     129.184 116.441 134.619  0.00  0.00    +0.000 N 
ATOM     23  H14 UNL     1     130.154 116.002 134.643  0.00  0.00    +0.000 HD
BRANCH  22  24
ATOM     24  S1  UNL     1     128.242 115.794 133.313  0.00  0.00    +0.000 S 
ATOM     25  O2  UNL     1     127.210 114.814 133.791  0.00  0.00    +0.000 OA
ATOM     26  O3  UNL     1     127.514 116.933 132.673  0.00  0.00    +0.000 OA
BRANCH  24  27
ATOM     27  C17 UNL     1     129.378 115.080 132.193  0.00  0.00    +0.000 A 
ATOM     28  C18 UNL     1     130.173 114.020 132.512  0.00  0.00    +0.000 A 
ATOM     29  C19 UNL     1     131.121 113.545 131.596  0.00  0.00    +0.000 A 
ATOM     30  C20 UNL     1     131.250 114.144 130.355  0.00  0.00    +0.000 A 
ATOM     31  C27 UNL     1     130.449 115.201 130.038  0.00  0.00    +0.000 A 
ATOM     32  C28 UNL     1     129.509 115.672 130.960  0.00  0.00    +0.000 A 
BRANCH  30  33
ATOM     33  C21 UNL     1     132.300 113.600 129.482  0.00  0.00    +0.000 C 
ATOM     34  C22 UNL     1     133.356 112.797 130.109  0.00  0.00    +0.000 C 
ATOM     35  C23 UNL     1     134.651 112.906 129.280  0.00  0.00    +0.000 C 
ATOM     36  C24 UNL     1     135.216 114.306 129.515  0.00  0.00    +0.000 C 
ATOM     37  C25 UNL     1     134.058 115.265 129.736  0.00  0.00    +0.000 C 
ATOM     38  C26 UNL     1     132.976 114.799 128.759  0.00  0.00    +0.000 C 
ENDBRANCH  30  33
ENDBRANCH  24  27
ENDBRANCH  22  24
ENDBRANCH   6  22
TORSDOF 7
ENDMDL
MODEL 2
REMARK VINA RESULT:     -10.4      0.232      1.006
REMARK  Name = aganitha_data/bbio_mols_pdbqt/BB_30.pdb
REMARK  9 active torsions:
REMARK  status: ('A' for Active; 'I' for Inactive)
REMARK    1  A    between atoms: C1_1  and  N1_2
REMARK    2  A    between atoms: N1_2  and  C10_12
REMARK    3  A    between atoms: C2_3  and  C3_4
REMARK    4  A    between atoms: C6_7  and  C7_8
REMARK    5  A    between atoms: C13_15  and  C14_16
REMARK    6  A    between atoms: C16_21  and  N2_22
REMARK    7  A    between atoms: N2_22  and  S1_23
REMARK    8  A    between atoms: S1_23  and  C17_24
REMARK    9  A    between atoms: C20_27  and  C21_28
REMARK                            x       y       z     vdW  Elec       q    Type
REMARK                         _______ _______ _______ _____ _____    ______ ____
ROOT
ATOM      1  C10 UNL     1     128.937 118.615 135.536  0.00  0.00    +0.000 A 
ATOM      2  C11 UNL     1     128.507 119.412 136.610  0.00  0.00    +0.000 A 
ATOM      3  C12 UNL     1     127.885 118.842 137.711  0.00  0.00    +0.000 A 
ATOM      4  C13 UNL     1     127.675 117.492 137.778  0.00  0.00    +0.000 A 
ATOM      5  C15 UNL     1     128.105 116.710 136.728  0.00  0.00    +0.000 A 
ATOM      6  C16 UNL     1     128.746 117.255 135.594  0.00  0.00    +0.000 A 
ENDROOT
BRANCH   1   8
ATOM      7  C1  UNL     1     128.603 120.062 133.453  0.00  0.00    +0.000 C 
ATOM      8  N1  UNL     1     129.390 119.242 134.349  0.00  0.00    +0.000 N 
ATOM      9  C2  UNL     1     130.822 119.173 134.090  0.00  0.00    +0.000 C 
ATOM     10  O1  UNL     1     131.601 118.769 134.999  0.00  0.00    +0.000 OA
BRANCH   9  11
ATOM     11  C3  UNL     1     131.454 119.550 132.844  0.00  0.00    +0.000 A 
ATOM     12  C4  UNL     1     131.674 118.522 131.911  0.00  0.00    +0.000 A 
ATOM     13  C5  UNL     1     132.293 118.742 130.702  0.00  0.00    +0.000 A 
ATOM     14  C6  UNL     1     132.739 119.991 130.334  0.00  0.00    +0.000 A 
ATOM     15  C7  UNL     1     133.467 120.200 129.038  0.00  0.00    +0.000 C 
ATOM     16  C8  UNL     1     132.523 121.002 131.235  0.00  0.00    +0.000 A 
ATOM     17  C9  UNL     1     131.892 120.793 132.469  0.00  0.00    +0.000 A 
ENDBRANCH   9  11
ENDBRANCH   1   8
BRANCH   4  18
ATOM     18  C14 UNL     1     126.932 116.857 138.919  0.00  0.00    +0.000 C 
ATOM     19  F1  UNL     1     127.232 115.541 139.021  0.00  0.00    +0.000 F 
ATOM     20  F2  UNL     1     125.579 117.033 138.836  0.00  0.00    +0.000 F 
ATOM     21  F3  UNL     1     127.424 117.443 140.115  0.00  0.00    +0.000 F 
ENDBRANCH   4  18
BRANCH   6  22
ATOM     22  N2  UNL     1     129.261 116.399 134.621  0.00  0.00    +0.000 N 
ATOM     23  H14 UNL     1     130.228 115.961 134.714  0.00  0.00    +0.000 HD
BRANCH  22  24
ATOM     24  S1  UNL     1     128.422 115.762 133.242  0.00  0.00    +0.000 S 
ATOM     25  O2  UNL     1     127.460 114.674 133.618  0.00  0.00    +0.000 OA
ATOM     26  O3  UNL     1     127.624 116.877 132.644  0.00  0.00    +0.000 OA
BRANCH  24  27
ATOM     27  C17 UNL     1     129.651 115.215 132.126  0.00  0.00    +0.000 A 
ATOM     28  C18 UNL     1     129.925 115.847 130.950  0.00  0.00    +0.000 A 
ATOM     29  C19 UNL     1     130.867 115.312 130.061  0.00  0.00    +0.000 A 
ATOM     30  C20 UNL     1     131.533 114.141 130.376  0.00  0.00    +0.000 A 
ATOM     31  C27 UNL     1     131.260 113.515 131.556  0.00  0.00    +0.000 A 
ATOM     32  C28 UNL     1     130.316 114.053 132.436  0.00  0.00    +0.000 A 
BRANCH  30  33
ATOM     33  C21 UNL     1     132.471 113.639 129.361  0.00  0.00    +0.000 C 
ATOM     34  C22 UNL     1     133.454 112.634 129.784  0.00  0.00    +0.000 C 
ATOM     35  C23 UNL     1     134.713 112.738 128.902  0.00  0.00    +0.000 C 
ATOM     36  C24 UNL     1     135.448 114.010 129.320  0.00  0.00    +0.000 C 
ATOM     37  C25 UNL     1     134.422 115.039 129.765  0.00  0.00    +0.000 C 
ATOM     38  C26 UNL     1     133.250 114.861 128.797  0.00  0.00    +0.000 C 
ENDBRANCH  30  33
ENDBRANCH  24  27
ENDBRANCH  22  24
ENDBRANCH   6  22
TORSDOF 7
ENDMDL
MODEL 3
REMARK VINA RESULT:     -10.2      1.050      1.744
REMARK  Name = aganitha_data/bbio_mols_pdbqt/BB_30.pdb
REMARK  9 active torsions:
REMARK  status: ('A' for Active; 'I' for Inactive)
REMARK    1  A    between atoms: C1_1  and  N1_2
REMARK    2  A    between atoms: N1_2  and  C10_12
REMARK    3  A    between atoms: C2_3  and  C3_4
REMARK    4  A    between atoms: C6_7  and  C7_8
REMARK    5  A    between atoms: C13_15  and  C14_16
REMARK    6  A    between atoms: C16_21  and  N2_22
REMARK    7  A    between atoms: N2_22  and  S1_23
REMARK    8  A    between atoms: S1_23  and  C17_24
REMARK    9  A    between atoms: C20_27  and  C21_28
REMARK                            x       y       z     vdW  Elec       q    Type
REMARK                         _______ _______ _______ _____ _____    ______ ____
ROOT
ATOM      1  C10 UNL     1     128.844 118.758 135.730  0.00  0.00    +0.000 A 
ATOM      2  C11 UNL     1     128.305 119.217 136.944  0.00  0.00    +0.000 A 
ATOM      3  C12 UNL     1     127.726 118.332 137.841  0.00  0.00    +0.000 A 
ATOM      4  C13 UNL     1     127.665 116.994 137.567  0.00  0.00    +0.000 A 
ATOM      5  C15 UNL     1     128.201 116.543 136.380  0.00  0.00    +0.000 A 
ATOM      6  C16 UNL     1     128.803 117.413 135.446  0.00  0.00    +0.000 A 
ENDROOT
BRANCH   1   8
ATOM      7  C1  UNL     1     128.442 120.761 134.190  0.00  0.00    +0.000 C 
ATOM      8  N1  UNL     1     129.251 119.701 134.755  0.00  0.00    +0.000 N 
ATOM      9  C2  UNL     1     130.663 119.691 134.399  0.00  0.00    +0.000 C 
ATOM     10  O1  UNL     1     131.478 119.025 135.098  0.00  0.00    +0.000 OA
BRANCH   9  11
ATOM     11  C3  UNL     1     131.238 120.412 133.282  0.00  0.00    +0.000 A 
ATOM     12  C4  UNL     1     131.873 121.631 133.578  0.00  0.00    +0.000 A 
ATOM     13  C5  UNL     1     132.433 122.426 132.605  0.00  0.00    +0.000 A 
ATOM     14  C6  UNL     1     132.401 122.073 131.275  0.00  0.00    +0.000 A 
ATOM     15  C7  UNL     1     132.962 122.984 130.221  0.00  0.00    +0.000 C 
ATOM     16  C8  UNL     1     131.789 120.883 130.977  0.00  0.00    +0.000 A 
ATOM     17  C9  UNL     1     131.217 120.062 131.958  0.00  0.00    +0.000 A 
ENDBRANCH   9  11
ENDBRANCH   1   8
BRANCH   4  18
ATOM     18  C14 UNL     1     126.971 116.024 138.481  0.00  0.00    +0.000 C 
ATOM     19  F1  UNL     1     127.082 116.410 139.773  0.00  0.00    +0.000 F 
ATOM     20  F2  UNL     1     127.411 114.739 138.327  0.00  0.00    +0.000 F 
ATOM     21  F3  UNL     1     125.583 116.097 138.191  0.00  0.00    +0.000 F 
ENDBRANCH   4  18
BRANCH   6  22
ATOM     22  N2  UNL     1     129.431 116.882 134.319  0.00  0.00    +0.000 N 
ATOM     23  H14 UNL     1     130.481 116.976 134.166  0.00  0.00    +0.000 HD
BRANCH  22  24
ATOM     24  S1  UNL     1     128.716 115.865 133.109  0.00  0.00    +0.000 S 
ATOM     25  O2  UNL     1     128.091 114.635 133.700  0.00  0.00    +0.000 OA
ATOM     26  O3  UNL     1     127.625 116.646 132.449  0.00  0.00    +0.000 OA
BRANCH  24  27
ATOM     27  C17 UNL     1     129.985 115.490 131.968  0.00  0.00    +0.000 A 
ATOM     28  C18 UNL     1     130.817 116.433 131.442  0.00  0.00    +0.000 A 
ATOM     29  C19 UNL     1     131.762 116.080 130.470  0.00  0.00    +0.000 A 
ATOM     30  C20 UNL     1     131.863 114.768 130.041  0.00  0.00    +0.000 A 
ATOM     31  C27 UNL     1     131.032 113.827 130.574  0.00  0.00    +0.000 A 
ATOM     32  C28 UNL     1     130.089 114.188 131.540  0.00  0.00    +0.000 A 
BRANCH  30  33
ATOM     33  C21 UNL     1     132.857 114.507 128.990  0.00  0.00    +0.000 C 
ATOM     34  C22 UNL     1     132.874 113.167 128.390  0.00  0.00    +0.000 C 
ATOM     35  C23 UNL     1     134.293 112.842 127.888  0.00  0.00    +0.000 C 
ATOM     36  C24 UNL     1     135.157 112.585 129.122  0.00  0.00    +0.000 C 
ATOM     37  C25 UNL     1     134.647 113.454 130.260  0.00  0.00    +0.000 C 
ATOM     38  C26 UNL     1     134.263 114.778 129.595  0.00  0.00    +0.000 C 
ENDBRANCH  30  33
ENDBRANCH  24  27
ENDBRANCH  22  24
ENDBRANCH   6  22
TORSDOF 7
ENDMDL
MODEL 4
REMARK VINA RESULT:     -10.0      1.046      1.510
REMARK  Name = aganitha_data/bbio_mols_pdbqt/BB_30.pdb
REMARK  9 active torsions:
REMARK  status: ('A' for Active; 'I' for Inactive)
REMARK    1  A    between atoms: C1_1  and  N1_2
REMARK    2  A    between atoms: N1_2  and  C10_12
REMARK    3  A    between atoms: C2_3  and  C3_4
REMARK    4  A    between atoms: C6_7  and  C7_8
REMARK    5  A    between atoms: C13_15  and  C14_16
REMARK    6  A    between atoms: C16_21  and  N2_22
REMARK    7  A    between atoms: N2_22  and  S1_23
REMARK    8  A    between atoms: S1_23  and  C17_24
REMARK    9  A    between atoms: C20_27  and  C21_28
REMARK                            x       y       z     vdW  Elec       q    Type
REMARK                         _______ _______ _______ _____ _____    ______ ____
ROOT
ATOM      1  C10 UNL     1     128.937 118.988 135.856  0.00  0.00    +0.000 A 
ATOM      2  C11 UNL     1     128.732 119.479 137.157  0.00  0.00    +0.000 A 
ATOM      3  C12 UNL     1     128.153 118.681 138.132  0.00  0.00    +0.000 A 
ATOM      4  C13 UNL     1     127.769 117.398 137.853  0.00  0.00    +0.000 A 
ATOM      5  C15 UNL     1     127.978 116.914 136.580  0.00  0.00    +0.000 A 
ATOM      6  C16 UNL     1     128.569 117.696 135.564  0.00  0.00    +0.000 A 
ENDROOT
BRANCH   1   8
ATOM      7  C1  UNL     1     128.620 121.039 134.361  0.00  0.00    +0.000 C 
ATOM      8  N1  UNL     1     129.348 119.882 134.838  0.00  0.00    +0.000 N 
ATOM      9  C2  UNL     1     130.700 119.700 134.328  0.00  0.00    +0.000 C 
ATOM     10  O1  UNL     1     131.498 118.932 134.937  0.00  0.00    +0.000 OA
BRANCH   9  11
ATOM     11  C3  UNL     1     131.234 120.354 133.152  0.00  0.00    +0.000 A 
ATOM     12  C4  UNL     1     131.930 121.558 133.360  0.00  0.00    +0.000 A 
ATOM     13  C5  UNL     1     132.460 122.292 132.324  0.00  0.00    +0.000 A 
ATOM     14  C6  UNL     1     132.335 121.889 131.013  0.00  0.00    +0.000 A 
ATOM     15  C7  UNL     1     132.865 122.735 129.892  0.00  0.00    +0.000 C 
ATOM     16  C8  UNL     1     131.663 120.713 130.801  0.00  0.00    +0.000 A 
ATOM     17  C9  UNL     1     131.121 119.954 131.846  0.00  0.00    +0.000 A 
ENDBRANCH   9  11
ENDBRANCH   1   8
BRANCH   4  18
ATOM     18  C14 UNL     1     127.065 116.539 138.865  0.00  0.00    +0.000 C 
ATOM     19  F1  UNL     1     125.744 116.446 138.590  0.00  0.00    +0.000 F 
ATOM     20  F2  UNL     1     127.257 116.964 140.150  0.00  0.00    +0.000 F 
ATOM     21  F3  UNL     1     127.568 115.219 138.713  0.00  0.00    +0.000 F 
ENDBRANCH   4  18
BRANCH   6  22
ATOM     22  N2  UNL     1     128.861 117.111 134.332  0.00  0.00    +0.000 N 
ATOM     23  H14 UNL     1     129.293 117.670 133.534  0.00  0.00    +0.000 HD
BRANCH  22  24
ATOM     24  S1  UNL     1     128.764 115.426 133.928  0.00  0.00    +0.000 S 
ATOM     25  O2  UNL     1     129.219 114.547 135.055  0.00  0.00    +0.000 OA
ATOM     26  O3  UNL     1     127.327 115.107 133.665  0.00  0.00    +0.000 OA
BRANCH  24  27
ATOM     27  C17 UNL     1     129.719 115.211 132.480  0.00  0.00    +0.000 A 
ATOM     28  C18 UNL     1     129.715 114.061 131.748  0.00  0.00    +0.000 A 
ATOM     29  C19 UNL     1     130.565 113.922 130.643  0.00  0.00    +0.000 A 
ATOM     30  C20 UNL     1     131.410 114.956 130.281  0.00  0.00    +0.000 A 
ATOM     31  C27 UNL     1     131.407 116.107 131.013  0.00  0.00    +0.000 A 
ATOM     32  C28 UNL     1     130.560 116.236 132.117  0.00  0.00    +0.000 A 
BRANCH  30  33
ATOM     33  C21 UNL     1     132.292 114.698 129.133  0.00  0.00    +0.000 C 
ATOM     34  C22 UNL     1     132.198 113.384 128.487  0.00  0.00    +0.000 C 
ATOM     35  C23 UNL     1     133.551 113.024 127.844  0.00  0.00    +0.000 C 
ATOM     36  C24 UNL     1     134.512 112.686 128.983  0.00  0.00    +0.000 C 
ATOM     37  C25 UNL     1     134.145 113.529 130.194  0.00  0.00    +0.000 C 
ATOM     38  C26 UNL     1     133.757 114.892 129.614  0.00  0.00    +0.000 C 
ENDBRANCH  30  33
ENDBRANCH  24  27
ENDBRANCH  22  24
ENDBRANCH   6  22
TORSDOF 7
ENDMDL
MODEL 5
REMARK VINA RESULT:      -9.8      0.978      1.383
REMARK  Name = aganitha_data/bbio_mols_pdbqt/BB_30.pdb
REMARK  9 active torsions:
REMARK  status: ('A' for Active; 'I' for Inactive)
REMARK    1  A    between atoms: C1_1  and  N1_2
REMARK    2  A    between atoms: N1_2  and  C10_12
REMARK    3  A    between atoms: C2_3  and  C3_4
REMARK    4  A    between atoms: C6_7  and  C7_8
REMARK    5  A    between atoms: C13_15  and  C14_16
REMARK    6  A    between atoms: C16_21  and  N2_22
REMARK    7  A    between atoms: N2_22  and  S1_23
REMARK    8  A    between atoms: S1_23  and  C17_24
REMARK    9  A    between atoms: C20_27  and  C21_28
REMARK                            x       y       z     vdW  Elec       q    Type
REMARK                         _______ _______ _______ _____ _____    ______ ____
ROOT
ATOM      1  C10 UNL     1     128.875 118.937 135.854  0.00  0.00    +0.000 A 
ATOM      2  C11 UNL     1     128.645 119.442 137.146  0.00  0.00    +0.000 A 
ATOM      3  C12 UNL     1     128.048 118.654 138.118  0.00  0.00    +0.000 A 
ATOM      4  C13 UNL     1     127.668 117.369 137.846  0.00  0.00    +0.000 A 
ATOM      5  C15 UNL     1     127.901 116.871 136.582  0.00  0.00    +0.000 A 
ATOM      6  C16 UNL     1     128.511 117.642 135.569  0.00  0.00    +0.000 A 
ENDROOT
BRANCH   1   8
ATOM      7  C1  UNL     1     128.588 120.974 134.334  0.00  0.00    +0.000 C 
ATOM      8  N1  UNL     1     129.305 119.820 134.834  0.00  0.00    +0.000 N 
ATOM      9  C2  UNL     1     130.665 119.629 134.349  0.00  0.00    +0.000 C 
ATOM     10  O1  UNL     1     131.450 118.865 134.978  0.00  0.00    +0.000 OA
BRANCH   9  11
ATOM     11  C3  UNL     1     131.219 120.270 133.175  0.00  0.00    +0.000 A 
ATOM     12  C4  UNL     1     130.954 119.658 131.937  0.00  0.00    +0.000 A 
ATOM     13  C5  UNL     1     131.447 120.148 130.751  0.00  0.00    +0.000 A 
ATOM     14  C6  UNL     1     132.238 121.274 130.706  0.00  0.00    +0.000 A 
ATOM     15  C7  UNL     1     132.819 121.759 129.409  0.00  0.00    +0.000 C 
ATOM     16  C8  UNL     1     132.498 121.882 131.908  0.00  0.00    +0.000 A 
ATOM     17  C9  UNL     1     132.000 121.394 133.123  0.00  0.00    +0.000 A 
ENDBRANCH   9  11
ENDBRANCH   1   8
BRANCH   4  18
ATOM     18  C14 UNL     1     126.945 116.520 138.854  0.00  0.00    +0.000 C 
ATOM     19  F1  UNL     1     127.255 116.896 140.116  0.00  0.00    +0.000 F 
ATOM     20  F2  UNL     1     127.173 115.183 138.685  0.00  0.00    +0.000 F 
ATOM     21  F3  UNL     1     125.559 116.796 138.715  0.00  0.00    +0.000 F 
ENDBRANCH   4  18
BRANCH   6  22
ATOM     22  N2  UNL     1     128.826 117.044 134.348  0.00  0.00    +0.000 N 
ATOM     23  H14 UNL     1     129.256 117.598 133.546  0.00  0.00    +0.000 HD
BRANCH  22  24
ATOM     24  S1  UNL     1     128.763 115.352 133.969  0.00  0.00    +0.000 S 
ATOM     25  O2  UNL     1     129.260 114.500 135.100  0.00  0.00    +0.000 OA
ATOM     26  O3  UNL     1     127.329 114.994 133.738  0.00  0.00    +0.000 OA
BRANCH  24  27
ATOM     27  C17 UNL     1     129.696 115.139 132.508  0.00  0.00    +0.000 A 
ATOM     28  C18 UNL     1     129.663 113.999 131.760  0.00  0.00    +0.000 A 
ATOM     29  C19 UNL     1     130.497 113.860 130.643  0.00  0.00    +0.000 A 
ATOM     30  C20 UNL     1     131.356 114.884 130.284  0.00  0.00    +0.000 A 
ATOM     31  C27 UNL     1     131.382 116.025 131.032  0.00  0.00    +0.000 A 
ATOM     32  C28 UNL     1     130.550 116.154 132.148  0.00  0.00    +0.000 A 
BRANCH  30  33
ATOM     33  C21 UNL     1     132.219 114.627 129.122  0.00  0.00    +0.000 C 
ATOM     34  C22 UNL     1     132.160 113.291 128.517  0.00  0.00    +0.000 C 
ATOM     35  C23 UNL     1     133.510 112.965 127.850  0.00  0.00    +0.000 C 
ATOM     36  C24 UNL     1     134.510 112.696 128.974  0.00  0.00    +0.000 C 
ATOM     37  C25 UNL     1     134.140 113.559 130.169  0.00  0.00    +0.000 C 
ATOM     38  C26 UNL     1     133.687 114.889 129.561  0.00  0.00    +0.000 C 
ENDBRANCH  30  33
ENDBRANCH  24  27
ENDBRANCH  22  24
ENDBRANCH   6  22
TORSDOF 7
ENDMDL
MODEL 6
REMARK VINA RESULT:      -9.8      1.228      1.877
REMARK  Name = aganitha_data/bbio_mols_pdbqt/BB_30.pdb
REMARK  9 active torsions:
REMARK  status: ('A' for Active; 'I' for Inactive)
REMARK    1  A    between atoms: C1_1  and  N1_2
REMARK    2  A    between atoms: N1_2  and  C10_12
REMARK    3  A    between atoms: C2_3  and  C3_4
REMARK    4  A    between atoms: C6_7  and  C7_8
REMARK    5  A    between atoms: C13_15  and  C14_16
REMARK    6  A    between atoms: C16_21  and  N2_22
REMARK    7  A    between atoms: N2_22  and  S1_23
REMARK    8  A    between atoms: S1_23  and  C17_24
REMARK    9  A    between atoms: C20_27  and  C21_28
REMARK                            x       y       z     vdW  Elec       q    Type
REMARK                         _______ _______ _______ _____ _____    ______ ____
ROOT
ATOM      1  C10 UNL     1     128.552 117.165 134.929  0.00  0.00    +0.000 A 
ATOM      2  C11 UNL     1     128.171 118.167 135.838  0.00  0.00    +0.000 A 
ATOM      3  C12 UNL     1     127.483 117.846 136.999  0.00  0.00    +0.000 A 
ATOM      4  C13 UNL     1     127.159 116.549 137.287  0.00  0.00    +0.000 A 
ATOM      5  C15 UNL     1     127.541 115.566 136.400  0.00  0.00    +0.000 A 
ATOM      6  C16 UNL     1     128.246 115.855 135.212  0.00  0.00    +0.000 A 
ENDROOT
BRANCH   1   8
ATOM      7  C1  UNL     1     128.408 117.435 132.389  0.00  0.00    +0.000 C 
ATOM      8  N1  UNL     1     129.078 117.540 133.669  0.00  0.00    +0.000 N 
ATOM      9  C2  UNL     1     130.358 118.233 133.685  0.00  0.00    +0.000 C 
ATOM     10  O1  UNL     1     130.826 118.654 134.781  0.00  0.00    +0.000 OA
BRANCH   9  11
ATOM     11  C3  UNL     1     131.165 118.505 132.514  0.00  0.00    +0.000 A 
ATOM     12  C4  UNL     1     131.696 119.802 132.400  0.00  0.00    +0.000 A 
ATOM     13  C5  UNL     1     132.454 120.197 131.322  0.00  0.00    +0.000 A 
ATOM     14  C6  UNL     1     132.736 119.339 130.282  0.00  0.00    +0.000 A 
ATOM     15  C7  UNL     1     133.512 119.807 129.085  0.00  0.00    +0.000 C 
ATOM     16  C8  UNL     1     132.227 118.070 130.387  0.00  0.00    +0.000 A 
ATOM     17  C9  UNL     1     131.456 117.654 131.481  0.00  0.00    +0.000 A 
ENDBRANCH   9  11
ENDBRANCH   1   8
BRANCH   4  18
ATOM     18  C14 UNL     1     126.344 116.181 138.494  0.00  0.00    +0.000 C 
ATOM     19  F1  UNL     1     127.046 116.381 139.634  0.00  0.00    +0.000 F 
ATOM     20  F2  UNL     1     125.869 114.900 138.446  0.00  0.00    +0.000 F 
ATOM     21  F3  UNL     1     125.261 117.096 138.561  0.00  0.00    +0.000 F 
ENDBRANCH   4  18
BRANCH   6  22
ATOM     22  N2  UNL     1     128.706 114.806 134.415  0.00  0.00    +0.000 N 
ATOM     23  H14 UNL     1     129.555 114.224 134.690  0.00  0.00    +0.000 HD
BRANCH  22  24
ATOM     24  S1  UNL     1     127.935 114.152 133.005  0.00  0.00    +0.000 S 
ATOM     25  O2  UNL     1     127.401 112.770 133.241  0.00  0.00    +0.000 OA
ATOM     26  O3  UNL     1     126.770 115.031 132.678  0.00  0.00    +0.000 OA
BRANCH  24  27
ATOM     27  C17 UNL     1     129.124 114.202 131.726  0.00  0.00    +0.000 A 
ATOM     28  C18 UNL     1     128.797 114.234 130.403  0.00  0.00    +0.000 A 
ATOM     29  C19 UNL     1     129.798 114.192 129.424  0.00  0.00    +0.000 A 
ATOM     30  C20 UNL     1     131.130 114.126 129.793  0.00  0.00    +0.000 A 
ATOM     31  C27 UNL     1     131.454 114.099 131.118  0.00  0.00    +0.000 A 
ATOM     32  C28 UNL     1     130.449 114.138 132.089  0.00  0.00    +0.000 A 
BRANCH  30  33
ATOM     33  C21 UNL     1     132.102 114.044 128.693  0.00  0.00    +0.000 C 
ATOM     34  C22 UNL     1     132.436 112.710 128.181  0.00  0.00    +0.000 C 
ATOM     35  C23 UNL     1     133.864 112.720 127.603  0.00  0.00    +0.000 C 
ATOM     36  C24 UNL     1     134.826 112.792 128.787  0.00  0.00    +0.000 C 
ATOM     37  C25 UNL     1     134.167 113.589 129.900  0.00  0.00    +0.000 C 
ATOM     38  C26 UNL     1     133.418 114.714 129.180  0.00  0.00    +0.000 C 
ENDBRANCH  30  33
ENDBRANCH  24  27
ENDBRANCH  22  24
ENDBRANCH   6  22
TORSDOF 7
ENDMDL
MODEL 7
REMARK VINA RESULT:      -9.7      2.551      5.148
REMARK  Name = aganitha_data/bbio_mols_pdbqt/BB_30.pdb
REMARK  9 active torsions:
REMARK  status: ('A' for Active; 'I' for Inactive)
REMARK    1  A    between atoms: C1_1  and  N1_2
REMARK    2  A    between atoms: N1_2  and  C10_12
REMARK    3  A    between atoms: C2_3  and  C3_4
REMARK    4  A    between atoms: C6_7  and  C7_8
REMARK    5  A    between atoms: C13_15  and  C14_16
REMARK    6  A    between atoms: C16_21  and  N2_22
REMARK    7  A    between atoms: N2_22  and  S1_23
REMARK    8  A    between atoms: S1_23  and  C17_24
REMARK    9  A    between atoms: C20_27  and  C21_28
REMARK                            x       y       z     vdW  Elec       q    Type
REMARK                         _______ _______ _______ _____ _____    ______ ____
ROOT
ATOM      1  C10 UNL     1     127.586 116.939 137.398  0.00  0.00    +0.000 A 
ATOM      2  C11 UNL     1     127.430 116.088 138.505  0.00  0.00    +0.000 A 
ATOM      3  C12 UNL     1     127.617 116.561 139.795  0.00  0.00    +0.000 A 
ATOM      4  C13 UNL     1     127.959 117.865 140.022  0.00  0.00    +0.000 A 
ATOM      5  C15 UNL     1     128.104 118.702 138.937  0.00  0.00    +0.000 A 
ATOM      6  C16 UNL     1     127.916 118.257 137.610  0.00  0.00    +0.000 A 
ENDROOT
BRANCH   1   8
ATOM      7  C1  UNL     1     126.411 116.016 135.322  0.00  0.00    +0.000 C 
ATOM      8  N1  UNL     1     127.579 116.386 136.095  0.00  0.00    +0.000 N 
ATOM      9  C2  UNL     1     128.864 116.323 135.414  0.00  0.00    +0.000 C 
ATOM     10  O1  UNL     1     129.857 116.937 135.898  0.00  0.00    +0.000 OA
BRANCH   9  11
ATOM     11  C3  UNL     1     129.112 115.604 134.182  0.00  0.00    +0.000 A 
ATOM     12  C4  UNL     1     129.344 116.381 133.034  0.00  0.00    +0.000 A 
ATOM     13  C5  UNL     1     129.562 115.822 131.796  0.00  0.00    +0.000 A 
ATOM     14  C6  UNL     1     129.563 114.458 131.608  0.00  0.00    +0.000 A 
ATOM     15  C7  UNL     1     129.741 113.868 130.239  0.00  0.00    +0.000 C 
ATOM     16  C8  UNL     1     129.343 113.692 132.723  0.00  0.00    +0.000 A 
ATOM     17  C9  UNL     1     129.122 114.248 133.990  0.00  0.00    +0.000 A 
ENDBRANCH   9  11
ENDBRANCH   1   8
BRANCH   4  18
ATOM     18  C14 UNL     1     128.249 118.386 141.402  0.00  0.00    +0.000 C 
ATOM     19  F1  UNL     1     127.491 119.472 141.680  0.00  0.00    +0.000 F 
ATOM     20  F2  UNL     1     129.572 118.663 141.599  0.00  0.00    +0.000 F 
ATOM     21  F3  UNL     1     127.821 117.391 142.321  0.00  0.00    +0.000 F 
ENDBRANCH   4  18
BRANCH   6  22
ATOM     22  N2  UNL     1     127.962 119.179 136.565  0.00  0.00    +0.000 N 
ATOM     23  H14 UNL     1     127.173 119.259 135.852  0.00  0.00    +0.000 HD
BRANCH  22  24
ATOM     24  S1  UNL     1     129.141 120.430 136.328  0.00  0.00    +0.000 S 
ATOM     25  O2  UNL     1     128.562 121.799 136.531  0.00  0.00    +0.000 OA
ATOM     26  O3  UNL     1     130.212 120.242 137.356  0.00  0.00    +0.000 OA
BRANCH  24  27
ATOM     27  C17 UNL     1     129.783 120.204 134.719  0.00  0.00    +0.000 A 
ATOM     28  C18 UNL     1     129.113 120.572 133.590  0.00  0.00    +0.000 A 
ATOM     29  C19 UNL     1     129.647 120.290 132.326  0.00  0.00    +0.000 A 
ATOM     30  C20 UNL     1     130.865 119.642 132.214  0.00  0.00    +0.000 A 
ATOM     31  C27 UNL     1     131.534 119.281 133.346  0.00  0.00    +0.000 A 
ATOM     32  C28 UNL     1     130.993 119.561 134.604  0.00  0.00    +0.000 A 
BRANCH  30  33
ATOM     33  C21 UNL     1     131.321 119.355 130.846  0.00  0.00    +0.000 C 
ATOM     34  C22 UNL     1     132.152 118.163 130.644  0.00  0.00    +0.000 C 
ATOM     35  C23 UNL     1     133.074 118.374 129.427  0.00  0.00    +0.000 C 
ATOM     36  C24 UNL     1     134.150 119.373 129.849  0.00  0.00    +0.000 C 
ATOM     37  C25 UNL     1     133.549 120.338 130.857  0.00  0.00    +0.000 C 
ATOM     38  C26 UNL     1     132.126 120.590 130.351  0.00  0.00    +0.000 C 
ENDBRANCH  30  33
ENDBRANCH  24  27
ENDBRANCH  22  24
ENDBRANCH   6  22
TORSDOF 7
ENDMDL
MODEL 8
REMARK VINA RESULT:      -9.7      3.518      5.994
REMARK  Name = aganitha_data/bbio_mols_pdbqt/BB_30.pdb
REMARK  9 active torsions:
REMARK  status: ('A' for Active; 'I' for Inactive)
REMARK    1  A    between atoms: C1_1  and  N1_2
REMARK    2  A    between atoms: N1_2  and  C10_12
REMARK    3  A    between atoms: C2_3  and  C3_4
REMARK    4  A    between atoms: C6_7  and  C7_8
REMARK    5  A    between atoms: C13_15  and  C14_16
REMARK    6  A    between atoms: C16_21  and  N2_22
REMARK    7  A    between atoms: N2_22  and  S1_23
REMARK    8  A    between atoms: S1_23  and  C17_24
REMARK    9  A    between atoms: C20_27  and  C21_28
REMARK                            x       y       z     vdW  Elec       q    Type
REMARK                         _______ _______ _______ _____ _____    ______ ____
ROOT
ATOM      1  C10 UNL     1     130.198 118.952 133.117  0.00  0.00    +0.000 A 
ATOM      2  C11 UNL     1     131.435 119.601 132.964  0.00  0.00    +0.000 A 
ATOM      3  C12 UNL     1     132.239 119.345 131.863  0.00  0.00    +0.000 A 
ATOM      4  C13 UNL     1     131.848 118.456 130.901  0.00  0.00    +0.000 A 
ATOM      5  C15 UNL     1     130.631 117.826 131.046  0.00  0.00    +0.000 A 
ATOM      6  C16 UNL     1     129.785 118.066 132.150  0.00  0.00    +0.000 A 
ENDROOT
BRANCH   1   8
ATOM      7  C1  UNL     1     128.581 120.153 134.694  0.00  0.00    +0.000 C 
ATOM      8  N1  UNL     1     129.494 119.086 134.338  0.00  0.00    +0.000 N 
ATOM      9  C2  UNL     1     129.584 117.964 135.261  0.00  0.00    +0.000 C 
ATOM     10  O1  UNL     1     130.082 116.871 134.867  0.00  0.00    +0.000 OA
BRANCH   9  11
ATOM     11  C3  UNL     1     129.128 117.986 136.635  0.00  0.00    +0.000 A 
ATOM     12  C4  UNL     1     130.044 118.448 137.597  0.00  0.00    +0.000 A 
ATOM     13  C5  UNL     1     129.747 118.490 138.939  0.00  0.00    +0.000 A 
ATOM     14  C6  UNL     1     128.525 118.078 139.423  0.00  0.00    +0.000 A 
ATOM     15  C7  UNL     1     128.240 118.073 140.896  0.00  0.00    +0.000 C 
ATOM     16  C8  UNL     1     127.623 117.631 138.491  0.00  0.00    +0.000 A 
ATOM     17  C9  UNL     1     127.912 117.585 137.121  0.00  0.00    +0.000 A 
ENDBRANCH   9  11
ENDBRANCH   1   8
BRANCH   4  18
ATOM     18  C14 UNL     1     132.733 118.097 129.740  0.00  0.00    +0.000 C 
ATOM     19  F1  UNL     1     132.394 116.893 129.225  0.00  0.00    +0.000 F 
ATOM     20  F2  UNL     1     134.063 118.124 130.056  0.00  0.00    +0.000 F 
ATOM     21  F3  UNL     1     132.463 119.032 128.706  0.00  0.00    +0.000 F 
ENDBRANCH   4  18
BRANCH   6  22
ATOM     22  N2  UNL     1     128.516 117.487 132.180  0.00  0.00    +0.000 N 
ATOM     23  H14 UNL     1     127.636 118.054 131.981  0.00  0.00    +0.000 HD
BRANCH  22  24
ATOM     24  S1  UNL     1     128.143 115.801 132.350  0.00  0.00    +0.000 S 
ATOM     25  O2  UNL     1     127.984 115.398 133.786  0.00  0.00    +0.000 OA
ATOM     26  O3  UNL     1     126.832 115.557 131.670  0.00  0.00    +0.000 OA
BRANCH  24  27
ATOM     27  C17 UNL     1     129.426 114.928 131.546  0.00  0.00    +0.000 A 
ATOM     28  C18 UNL     1     130.539 114.478 132.192  0.00  0.00    +0.000 A 
ATOM     29  C19 UNL     1     131.570 113.855 131.475  0.00  0.00    +0.000 A 
ATOM     30  C20 UNL     1     131.462 113.686 130.106  0.00  0.00    +0.000 A 
ATOM     31  C27 UNL     1     130.344 114.133 129.465  0.00  0.00    +0.000 A 
ATOM     32  C28 UNL     1     129.322 114.757 130.186  0.00  0.00    +0.000 A 
BRANCH  30  33
ATOM     33  C21 UNL     1     132.613 113.059 129.440  0.00  0.00    +0.000 C 
ATOM     34  C22 UNL     1     133.624 112.421 130.290  0.00  0.00    +0.000 C 
ATOM     35  C23 UNL     1     134.993 112.457 129.584  0.00  0.00    +0.000 C 
ATOM     36  C24 UNL     1     135.485 113.903 129.636  0.00  0.00    +0.000 C 
ATOM     37  C25 UNL     1     134.280 114.828 129.582  0.00  0.00    +0.000 C 
ATOM     38  C26 UNL     1     133.320 114.157 128.596  0.00  0.00    +0.000 C 
ENDBRANCH  30  33
ENDBRANCH  24  27
ENDBRANCH  22  24
ENDBRANCH   6  22
TORSDOF 7
ENDMDL
MODEL 9
REMARK VINA RESULT:      -9.6      0.979      1.263
REMARK  Name = aganitha_data/bbio_mols_pdbqt/BB_30.pdb
REMARK  9 active torsions:
REMARK  status: ('A' for Active; 'I' for Inactive)
REMARK    1  A    between atoms: C1_1  and  N1_2
REMARK    2  A    between atoms: N1_2  and  C10_12
REMARK    3  A    between atoms: C2_3  and  C3_4
REMARK    4  A    between atoms: C6_7  and  C7_8
REMARK    5  A    between atoms: C13_15  and  C14_16
REMARK    6  A    between atoms: C16_21  and  N2_22
REMARK    7  A    between atoms: N2_22  and  S1_23
REMARK    8  A    between atoms: S1_23  and  C17_24
REMARK    9  A    between atoms: C20_27  and  C21_28
REMARK                            x       y       z     vdW  Elec       q    Type
REMARK                         _______ _______ _______ _____ _____    ______ ____
ROOT
ATOM      1  C10 UNL     1     128.871 117.840 135.186  0.00  0.00    +0.000 A 
ATOM      2  C11 UNL     1     128.489 118.767 136.171  0.00  0.00    +0.000 A 
ATOM      3  C12 UNL     1     127.848 118.349 137.327  0.00  0.00    +0.000 A 
ATOM      4  C13 UNL     1     127.572 117.027 137.538  0.00  0.00    +0.000 A 
ATOM      5  C15 UNL     1     127.954 116.117 136.577  0.00  0.00    +0.000 A 
ATOM      6  C16 UNL     1     128.612 116.505 135.390  0.00  0.00    +0.000 A 
ENDROOT
BRANCH   1   8
ATOM      7  C1  UNL     1     128.617 118.321 132.686  0.00  0.00    +0.000 C 
ATOM      8  N1  UNL     1     129.345 118.313 133.939  0.00  0.00    +0.000 N 
ATOM      9  C2  UNL     1     130.633 118.991 133.954  0.00  0.00    +0.000 C 
ATOM     10  O1  UNL     1     131.155 119.314 135.058  0.00  0.00    +0.000 OA
BRANCH   9  11
ATOM     11  C3  UNL     1     131.391 119.351 132.774  0.00  0.00    +0.000 A 
ATOM     12  C4  UNL     1     131.643 118.323 131.848  0.00  0.00    +0.000 A 
ATOM     13  C5  UNL     1     132.376 118.526 130.702  0.00  0.00    +0.000 A 
ATOM     14  C6  UNL     1     132.912 119.756 130.393  0.00  0.00    +0.000 A 
ATOM     15  C7  UNL     1     133.761 119.943 129.170  0.00  0.00    +0.000 C 
ATOM     16  C8  UNL     1     132.666 120.766 131.287  0.00  0.00    +0.000 A 
ATOM     17  C9  UNL     1     131.919 120.574 132.457  0.00  0.00    +0.000 A 
ENDBRANCH   9  11
ENDBRANCH   1   8
BRANCH   4  18
ATOM     18  C14 UNL     1     126.807 116.554 138.742  0.00  0.00    +0.000 C 
ATOM     19  F1  UNL     1     126.908 115.212 138.885  0.00  0.00    +0.000 F 
ATOM     20  F2  UNL     1     125.495 116.935 138.723  0.00  0.00    +0.000 F 
ATOM     21  F3  UNL     1     127.451 117.097 139.885  0.00  0.00    +0.000 F 
ENDBRANCH   4  18
BRANCH   6  22
ATOM     22  N2  UNL     1     129.077 115.525 134.512  0.00  0.00    +0.000 N 
ATOM     23  H14 UNL     1     130.003 115.022 134.672  0.00  0.00    +0.000 HD
BRANCH  22  24
ATOM     24  S1  UNL     1     128.220 114.835 133.171  0.00  0.00    +0.000 S 
ATOM     25  O2  UNL     1     127.512 113.566 133.545  0.00  0.00    +0.000 OA
ATOM     26  O3  UNL     1     127.177 115.819 132.746  0.00  0.00    +0.000 OA
BRANCH  24  27
ATOM     27  C17 UNL     1     129.398 114.597 131.902  0.00  0.00    +0.000 A 
ATOM     28  C18 UNL     1     130.648 115.139 131.934  0.00  0.00    +0.000 A 
ATOM     29  C19 UNL     1     131.518 114.978 130.848  0.00  0.00    +0.000 A 
ATOM     30  C20 UNL     1     131.116 114.258 129.736  0.00  0.00    +0.000 A 
ATOM     31  C27 UNL     1     129.866 113.713 129.710  0.00  0.00    +0.000 A 
ATOM     32  C28 UNL     1     129.002 113.882 130.796  0.00  0.00    +0.000 A 
BRANCH  30  33
ATOM     33  C21 UNL     1     132.084 114.181 128.632  0.00  0.00    +0.000 C 
ATOM     34  C22 UNL     1     132.260 112.881 127.974  0.00  0.00    +0.000 C 
ATOM     35  C23 UNL     1     133.685 112.780 127.398  0.00  0.00    +0.000 C 
ATOM     36  C24 UNL     1     134.634 112.601 128.582  0.00  0.00    +0.000 C 
ATOM     37  C25 UNL     1     134.064 113.345 129.778  0.00  0.00    +0.000 C 
ATOM     38  C26 UNL     1     133.466 114.626 129.189  0.00  0.00    +0.000 C 
ENDBRANCH  30  33
ENDBRANCH  24  27
ENDBRANCH  22  24
ENDBRANCH   6  22
TORSDOF 7
ENDMDL
