MODEL 1
REMARK VINA RESULT:     -11.1      0.000      0.000
REMARK  Name = aganitha_data/bbio_mols_pdbqt/BB_35.pdb
REMARK  9 active torsions:
REMARK  status: ('A' for Active; 'I' for Inactive)
REMARK    1  A    between atoms: C1_1  and  N4_31
REMARK    2  A    between atoms: C2_2  and  C9_14
REMARK    3  A    between atoms: C5_5  and  N1_7
REMARK    4  A    between atoms: N1_7  and  S1_8
REMARK    5  A    between atoms: S1_8  and  C7_9
REMARK    6  A    between atoms: C7_9  and  C8_10
REMARK    7  A    between atoms: C8_10  and  O1_11
REMARK    8  A    between atoms: N2_15  and  C10_16
REMARK    9  A    between atoms: C14_20  and  N3_22
REMARK                            x       y       z     vdW  Elec       q    Type
REMARK                         _______ _______ _______ _____ _____    ______ ____
ROOT
ATOM      1  C1  UNL     1     131.022 115.040 130.736  0.00  0.00    +0.000 A 
ATOM      2  C2  UNL     1     131.233 116.350 130.970  0.00  0.00    +0.000 A 
ATOM      3  C3  UNL     1     132.264 116.998 130.257  0.00  0.00    +0.000 A 
ATOM      4  C4  UNL     1     133.039 116.334 129.347  0.00  0.00    +0.000 A 
ATOM      5  C5  UNL     1     132.839 115.000 129.095  0.00  0.00    +0.000 A 
ATOM      6  C6  UNL     1     131.842 114.379 129.787  0.00  0.00    +0.000 A 
ENDROOT
BRANCH   1   7
ATOM      7  N4  UNL     1     130.043 114.261 131.382  0.00  0.00    +0.000 N 
ATOM      8  C21 UNL     1     130.210 113.906 132.763  0.00  0.00    +0.000 C 
ATOM      9  C22 UNL     1     129.121 114.496 133.627  0.00  0.00    +0.000 C 
ATOM     10  C23 UNL     1     127.869 114.772 132.858  0.00  0.00    +0.000 C 
ATOM     11  C24 UNL     1     127.695 113.965 131.631  0.00  0.00    +0.000 C 
ATOM     12  C25 UNL     1     128.851 113.856 130.703  0.00  0.00    +0.000 C 
ATOM     13  C26 UNL     1     127.411 116.241 132.769  0.00  0.00    +0.000 C 
ATOM     14  C27 UNL     1     126.686 115.244 133.592  0.00  0.00    +0.000 C 
ENDBRANCH   1   7
BRANCH   2  15
ATOM     15  C9  UNL     1     130.470 117.169 131.875  0.00  0.00    +0.000 C 
ATOM     16  N2  UNL     1     130.843 117.790 133.064  0.00  0.00    +0.000 N 
ATOM     17  O4  UNL     1     129.242 117.357 131.532  0.00  0.00    +0.000 OA
ATOM     18  H10 UNL     1     131.832 117.628 133.372  0.00  0.00    +0.000 HD
BRANCH  16  19
ATOM     19  C10 UNL     1     130.071 118.604 133.927  0.00  0.00    +0.000 A 
ATOM     20  C11 UNL     1     129.937 119.962 133.622  0.00  0.00    +0.000 A 
ATOM     21  C12 UNL     1     129.190 120.821 134.388  0.00  0.00    +0.000 A 
ATOM     22  C13 UNL     1     128.529 120.381 135.503  0.00  0.00    +0.000 A 
ATOM     23  C14 UNL     1     128.632 119.050 135.844  0.00  0.00    +0.000 A 
ATOM     24  C15 UNL     1     129.404 118.188 135.044  0.00  0.00    +0.000 A 
BRANCH  23  25
ATOM     25  N3  UNL     1     127.978 118.532 136.994  0.00  0.00    +0.000 N 
ATOM     26  C16 UNL     1     128.393 118.826 138.353  0.00  0.00    +0.000 C 
ATOM     27  C17 UNL     1     128.480 117.504 139.133  0.00  0.00    +0.000 C 
ATOM     28  C18 UNL     1     128.448 116.323 138.174  0.00  0.00    +0.000 C 
ATOM     29  C19 UNL     1     127.052 116.339 137.561  0.00  0.00    +0.000 C 
ATOM     30  C20 UNL     1     126.820 117.671 136.870  0.00  0.00    +0.000 C 
ATOM     31  F1  UNL     1     128.665 115.174 138.866  0.00  0.00    +0.000 F 
ATOM     32  F2  UNL     1     129.371 116.529 137.163  0.00  0.00    +0.000 F 
ENDBRANCH  23  25
ENDBRANCH  16  19
ENDBRANCH   2  15
BRANCH   5  33
ATOM     33  N1  UNL     1     133.638 114.290 128.157  0.00  0.00    +0.000 N 
ATOM     34  H4  UNL     1     133.529 114.539 127.149  0.00  0.00    +0.000 HD
BRANCH  33  35
ATOM     35  S1  UNL     1     134.741 113.072 128.648  0.00  0.00    +0.000 S 
ATOM     36  O2  UNL     1     135.441 112.520 127.449  0.00  0.00    +0.000 OA
ATOM     37  O3  UNL     1     134.002 111.958 129.310  0.00  0.00    +0.000 OA
BRANCH  35  38
ATOM     38  C7  UNL     1     135.945 113.828 129.713  0.00  0.00    +0.000 C 
BRANCH  38  39
ATOM     39  C8  UNL     1     136.534 112.759 130.607  0.00  0.00    +0.000 C 
BRANCH  39  40
ATOM     40  O1  UNL     1     136.940 111.681 129.855  0.00  0.00    +0.000 OA
ATOM     41  H9  UNL     1     137.885 111.814 129.553  0.00  0.00    +0.000 HD
ENDBRANCH  39  40
ENDBRANCH  38  39
ENDBRANCH  35  38
ENDBRANCH  33  35
ENDBRANCH   5  33
TORSDOF 9
ENDMDL
MODEL 2
REMARK VINA RESULT:     -10.0      3.857      8.574
REMARK  Name = aganitha_data/bbio_mols_pdbqt/BB_35.pdb
REMARK  9 active torsions:
REMARK  status: ('A' for Active; 'I' for Inactive)
REMARK    1  A    between atoms: C1_1  and  N4_31
REMARK    2  A    between atoms: C2_2  and  C9_14
REMARK    3  A    between atoms: C5_5  and  N1_7
REMARK    4  A    between atoms: N1_7  and  S1_8
REMARK    5  A    between atoms: S1_8  and  C7_9
REMARK    6  A    between atoms: C7_9  and  C8_10
REMARK    7  A    between atoms: C8_10  and  O1_11
REMARK    8  A    between atoms: N2_15  and  C10_16
REMARK    9  A    between atoms: C14_20  and  N3_22
REMARK                            x       y       z     vdW  Elec       q    Type
REMARK                         _______ _______ _______ _____ _____    ______ ____
ROOT
ATOM      1  C1  UNL     1     128.053 116.105 133.761  0.00  0.00    +0.000 A 
ATOM      2  C2  UNL     1     129.274 116.675 133.758  0.00  0.00    +0.000 A 
ATOM      3  C3  UNL     1     129.674 117.403 134.899  0.00  0.00    +0.000 A 
ATOM      4  C4  UNL     1     128.859 117.538 135.990  0.00  0.00    +0.000 A 
ATOM      5  C5  UNL     1     127.613 116.964 136.012  0.00  0.00    +0.000 A 
ATOM      6  C6  UNL     1     127.233 116.262 134.906  0.00  0.00    +0.000 A 
ENDROOT
BRANCH   1   7
ATOM      7  N4  UNL     1     127.515 115.364 132.691  0.00  0.00    +0.000 N 
ATOM      8  C21 UNL     1     127.128 116.035 131.483  0.00  0.00    +0.000 C 
ATOM      9  C22 UNL     1     127.948 115.573 130.301  0.00  0.00    +0.000 C 
ATOM     10  C23 UNL     1     128.503 114.199 130.493  0.00  0.00    +0.000 C 
ATOM     11  C24 UNL     1     127.760 113.349 131.448  0.00  0.00    +0.000 C 
ATOM     12  C25 UNL     1     127.394 113.941 132.762  0.00  0.00    +0.000 C 
ATOM     13  C26 UNL     1     130.038 114.060 130.522  0.00  0.00    +0.000 C 
ATOM     14  C27 UNL     1     129.230 113.574 129.378  0.00  0.00    +0.000 C 
ENDBRANCH   1   7
BRANCH   2  15
ATOM     15  C9  UNL     1     130.235 116.582 132.691  0.00  0.00    +0.000 C 
ATOM     16  N2  UNL     1     130.712 117.556 131.817  0.00  0.00    +0.000 N 
ATOM     17  O4  UNL     1     130.736 115.408 132.513  0.00  0.00    +0.000 OA
ATOM     18  H10 UNL     1     130.297 118.512 131.931  0.00  0.00    +0.000 HD
BRANCH  16  19
ATOM     19  C10 UNL     1     131.671 117.436 130.784  0.00  0.00    +0.000 A 
ATOM     20  C11 UNL     1     132.108 118.598 130.139  0.00  0.00    +0.000 A 
ATOM     21  C12 UNL     1     133.050 118.580 129.143  0.00  0.00    +0.000 A 
ATOM     22  C13 UNL     1     133.618 117.406 128.728  0.00  0.00    +0.000 A 
ATOM     23  C14 UNL     1     133.219 116.234 129.333  0.00  0.00    +0.000 A 
ATOM     24  C15 UNL     1     132.250 116.276 130.352  0.00  0.00    +0.000 A 
BRANCH  23  25
ATOM     25  N3  UNL     1     133.763 114.981 128.942  0.00  0.00    +0.000 N 
ATOM     26  C16 UNL     1     133.071 114.039 128.084  0.00  0.00    +0.000 C 
ATOM     27  C17 UNL     1     133.136 112.647 128.734  0.00  0.00    +0.000 C 
ATOM     28  C18 UNL     1     133.582 112.764 130.185  0.00  0.00    +0.000 C 
ATOM     29  C19 UNL     1     135.026 113.251 130.125  0.00  0.00    +0.000 C 
ATOM     30  C20 UNL     1     135.082 114.572 129.379  0.00  0.00    +0.000 C 
ATOM     31  F1  UNL     1     133.501 111.546 130.781  0.00  0.00    +0.000 F 
ATOM     32  F2  UNL     1     132.822 113.730 130.821  0.00  0.00    +0.000 F 
ENDBRANCH  23  25
ENDBRANCH  16  19
ENDBRANCH   2  15
BRANCH   5  33
ATOM     33  N1  UNL     1     126.751 117.097 137.134  0.00  0.00    +0.000 N 
ATOM     34  H4  UNL     1     125.960 117.773 137.054  0.00  0.00    +0.000 HD
BRANCH  33  35
ATOM     35  S1  UNL     1     126.988 116.188 138.569  0.00  0.00    +0.000 S 
ATOM     36  O2  UNL     1     128.151 115.267 138.390  0.00  0.00    +0.000 OA
ATOM     37  O3  UNL     1     125.778 115.363 138.850  0.00  0.00    +0.000 OA
BRANCH  35  38
ATOM     38  C7  UNL     1     127.362 117.329 139.878  0.00  0.00    +0.000 C 
BRANCH  38  39
ATOM     39  C8  UNL     1     128.550 118.167 139.461  0.00  0.00    +0.000 C 
BRANCH  39  40
ATOM     40  O1  UNL     1     128.133 119.247 138.719  0.00  0.00    +0.000 OA
ATOM     41  H9  UNL     1     128.717 119.352 137.914  0.00  0.00    +0.000 HD
ENDBRANCH  39  40
ENDBRANCH  38  39
ENDBRANCH  35  38
ENDBRANCH  33  35
ENDBRANCH   5  33
TORSDOF 9
ENDMDL
MODEL 3
REMARK VINA RESULT:      -9.9      4.085      9.300
REMARK  Name = aganitha_data/bbio_mols_pdbqt/BB_35.pdb
REMARK  9 active torsions:
REMARK  status: ('A' for Active; 'I' for Inactive)
REMARK    1  A    between atoms: C1_1  and  N4_31
REMARK    2  A    between atoms: C2_2  and  C9_14
REMARK    3  A    between atoms: C5_5  and  N1_7
REMARK    4  A    between atoms: N1_7  and  S1_8
REMARK    5  A    between atoms: S1_8  and  C7_9
REMARK    6  A    between atoms: C7_9  and  C8_10
REMARK    7  A    between atoms: C8_10  and  O1_11
REMARK    8  A    between atoms: N2_15  and  C10_16
REMARK    9  A    between atoms: C14_20  and  N3_22
REMARK                            x       y       z     vdW  Elec       q    Type
REMARK                         _______ _______ _______ _____ _____    ______ ____
ROOT
ATOM      1  C1  UNL     1     128.917 117.395 133.969  0.00  0.00    +0.000 A 
ATOM      2  C2  UNL     1     128.850 116.138 133.487  0.00  0.00    +0.000 A 
ATOM      3  C3  UNL     1     128.143 115.173 134.234  0.00  0.00    +0.000 A 
ATOM      4  C4  UNL     1     127.531 115.483 135.418  0.00  0.00    +0.000 A 
ATOM      5  C5  UNL     1     127.587 116.757 135.925  0.00  0.00    +0.000 A 
ATOM      6  C6  UNL     1     128.273 117.685 135.199  0.00  0.00    +0.000 A 
ENDROOT
BRANCH   1   7
ATOM      7  N4  UNL     1     129.599 118.456 133.343  0.00  0.00    +0.000 N 
ATOM      8  C21 UNL     1     128.874 119.625 132.931  0.00  0.00    +0.000 C 
ATOM      9  C22 UNL     1     129.340 120.858 133.668  0.00  0.00    +0.000 C 
ATOM     10  C23 UNL     1     130.745 120.732 134.161  0.00  0.00    +0.000 C 
ATOM     11  C24 UNL     1     131.585 119.763 133.424  0.00  0.00    +0.000 C 
ATOM     12  C25 UNL     1     131.015 118.417 133.153  0.00  0.00    +0.000 C 
ATOM     13  C26 UNL     1     130.959 120.785 135.687  0.00  0.00    +0.000 C 
ATOM     14  C27 UNL     1     131.371 121.899 134.801  0.00  0.00    +0.000 C 
ENDBRANCH   1   7
BRANCH   2  15
ATOM     15  C9  UNL     1     129.420 115.691 132.244  0.00  0.00    +0.000 C 
ATOM     16  N2  UNL     1     130.238 114.599 131.966  0.00  0.00    +0.000 N 
ATOM     17  O4  UNL     1     129.130 116.420 131.221  0.00  0.00    +0.000 OA
ATOM     18  H10 UNL     1     130.506 114.009 132.790  0.00  0.00    +0.000 HD
BRANCH  16  19
ATOM     19  C10 UNL     1     130.772 114.176 130.726  0.00  0.00    +0.000 A 
ATOM     20  C11 UNL     1     129.899 113.660 129.763  0.00  0.00    +0.000 A 
ATOM     21  C12 UNL     1     130.324 113.248 128.526  0.00  0.00    +0.000 A 
ATOM     22  C13 UNL     1     131.643 113.323 128.170  0.00  0.00    +0.000 A 
ATOM     23  C14 UNL     1     132.542 113.824 129.086  0.00  0.00    +0.000 A 
ATOM     24  C15 UNL     1     132.084 114.241 130.349  0.00  0.00    +0.000 A 
BRANCH  23  25
ATOM     25  N3  UNL     1     133.927 113.921 128.782  0.00  0.00    +0.000 N 
ATOM     26  C16 UNL     1     134.646 112.936 127.995  0.00  0.00    +0.000 C 
ATOM     27  C17 UNL     1     135.937 112.563 128.742  0.00  0.00    +0.000 C 
ATOM     28  C18 UNL     1     135.878 113.062 130.179  0.00  0.00    +0.000 C 
ATOM     29  C19 UNL     1     135.894 114.583 130.078  0.00  0.00    +0.000 C 
ATOM     30  C20 UNL     1     134.715 115.046 129.240  0.00  0.00    +0.000 C 
ATOM     31  F1  UNL     1     136.961 112.605 130.860  0.00  0.00    +0.000 F 
ATOM     32  F2  UNL     1     134.677 112.676 130.748  0.00  0.00    +0.000 F 
ENDBRANCH  23  25
ENDBRANCH  16  19
ENDBRANCH   2  15
BRANCH   5  33
ATOM     33  N1  UNL     1     126.963 117.098 137.156  0.00  0.00    +0.000 N 
ATOM     34  H4  UNL     1     126.072 117.640 137.108  0.00  0.00    +0.000 HD
BRANCH  33  35
ATOM     35  S1  UNL     1     127.636 116.643 138.667  0.00  0.00    +0.000 S 
ATOM     36  O2  UNL     1     128.564 115.488 138.473  0.00  0.00    +0.000 OA
ATOM     37  O3  UNL     1     126.550 116.219 139.596  0.00  0.00    +0.000 OA
BRANCH  35  38
ATOM     38  C7  UNL     1     128.567 118.025 139.283  0.00  0.00    +0.000 C 
BRANCH  38  39
ATOM     39  C8  UNL     1     129.840 118.146 138.474  0.00  0.00    +0.000 C 
BRANCH  39  40
ATOM     40  O1  UNL     1     130.533 119.275 138.846  0.00  0.00    +0.000 OA
ATOM     41  H9  UNL     1     130.040 120.092 138.545  0.00  0.00    +0.000 HD
ENDBRANCH  39  40
ENDBRANCH  38  39
ENDBRANCH  35  38
ENDBRANCH  33  35
ENDBRANCH   5  33
TORSDOF 9
ENDMDL
MODEL 4
REMARK VINA RESULT:      -9.7      1.110      1.202
REMARK  Name = aganitha_data/bbio_mols_pdbqt/BB_35.pdb
REMARK  9 active torsions:
REMARK  status: ('A' for Active; 'I' for Inactive)
REMARK    1  A    between atoms: C1_1  and  N4_31
REMARK    2  A    between atoms: C2_2  and  C9_14
REMARK    3  A    between atoms: C5_5  and  N1_7
REMARK    4  A    between atoms: N1_7  and  S1_8
REMARK    5  A    between atoms: S1_8  and  C7_9
REMARK    6  A    between atoms: C7_9  and  C8_10
REMARK    7  A    between atoms: C8_10  and  O1_11
REMARK    8  A    between atoms: N2_15  and  C10_16
REMARK    9  A    between atoms: C14_20  and  N3_22
REMARK                            x       y       z     vdW  Elec       q    Type
REMARK                         _______ _______ _______ _____ _____    ______ ____
ROOT
ATOM      1  C1  UNL     1     130.392 115.476 130.527  0.00  0.00    +0.000 A 
ATOM      2  C2  UNL     1     131.036 116.441 131.212  0.00  0.00    +0.000 A 
ATOM      3  C3  UNL     1     132.351 116.771 130.824  0.00  0.00    +0.000 A 
ATOM      4  C4  UNL     1     132.975 116.142 129.781  0.00  0.00    +0.000 A 
ATOM      5  C5  UNL     1     132.335 115.157 129.072  0.00  0.00    +0.000 A 
ATOM      6  C6  UNL     1     131.065 114.842 129.452  0.00  0.00    +0.000 A 
ENDROOT
BRANCH   1   7
ATOM      7  N4  UNL     1     129.086 115.032 130.810  0.00  0.00    +0.000 N 
ATOM      8  C21 UNL     1     128.870 113.680 131.242  0.00  0.00    +0.000 C 
ATOM      9  C22 UNL     1     128.300 113.626 132.639  0.00  0.00    +0.000 C 
ATOM     10  C23 UNL     1     127.559 114.873 133.003  0.00  0.00    +0.000 C 
ATOM     11  C24 UNL     1     127.041 115.652 131.857  0.00  0.00    +0.000 C 
ATOM     12  C25 UNL     1     127.967 115.918 130.725  0.00  0.00    +0.000 C 
ATOM     13  C26 UNL     1     128.112 115.696 134.183  0.00  0.00    +0.000 C 
ATOM     14  C27 UNL     1     126.855 114.919 134.292  0.00  0.00    +0.000 C 
ENDBRANCH   1   7
BRANCH   2  15
ATOM     15  C9  UNL     1     130.484 117.199 132.303  0.00  0.00    +0.000 C 
ATOM     16  N2  UNL     1     130.112 118.539 132.375  0.00  0.00    +0.000 N 
ATOM     17  O4  UNL     1     130.306 116.533 133.392  0.00  0.00    +0.000 OA
ATOM     18  H10 UNL     1     130.274 119.104 131.507  0.00  0.00    +0.000 HD
BRANCH  16  19
ATOM     19  C10 UNL     1     129.556 119.255 133.462  0.00  0.00    +0.000 A 
ATOM     20  C11 UNL     1     129.282 120.616 133.296  0.00  0.00    +0.000 A 
ATOM     21  C12 UNL     1     128.723 121.383 134.286  0.00  0.00    +0.000 A 
ATOM     22  C13 UNL     1     128.401 120.844 135.501  0.00  0.00    +0.000 A 
ATOM     23  C14 UNL     1     128.653 119.506 135.713  0.00  0.00    +0.000 A 
ATOM     24  C15 UNL     1     129.227 118.738 134.683  0.00  0.00    +0.000 A 
BRANCH  23  25
ATOM     25  N3  UNL     1     128.349 118.887 136.955  0.00  0.00    +0.000 N 
ATOM     26  C16 UNL     1     129.046 119.188 138.192  0.00  0.00    +0.000 C 
ATOM     27  C17 UNL     1     129.451 117.862 138.858  0.00  0.00    +0.000 C 
ATOM     28  C18 UNL     1     129.310 116.711 137.872  0.00  0.00    +0.000 C 
ATOM     29  C19 UNL     1     127.814 116.590 137.606  0.00  0.00    +0.000 C 
ATOM     30  C20 UNL     1     127.289 117.906 137.061  0.00  0.00    +0.000 C 
ATOM     31  F1  UNL     1     129.802 115.576 138.431  0.00  0.00    +0.000 F 
ATOM     32  F2  UNL     1     129.937 117.047 136.685  0.00  0.00    +0.000 F 
ENDBRANCH  23  25
ENDBRANCH  16  19
ENDBRANCH   2  15
BRANCH   5  33
ATOM     33  N1  UNL     1     132.968 114.488 127.989  0.00  0.00    +0.000 N 
ATOM     34  H4  UNL     1     133.080 115.018 127.096  0.00  0.00    +0.000 HD
BRANCH  33  35
ATOM     35  S1  UNL     1     133.531 112.873 128.129  0.00  0.00    +0.000 S 
ATOM     36  O2  UNL     1     134.732 112.686 127.261  0.00  0.00    +0.000 OA
ATOM     37  O3  UNL     1     132.472 111.928 127.669  0.00  0.00    +0.000 OA
BRANCH  35  38
ATOM     38  C7  UNL     1     134.002 112.608 129.820  0.00  0.00    +0.000 C 
BRANCH  38  39
ATOM     39  C8  UNL     1     135.474 112.926 129.965  0.00  0.00    +0.000 C 
BRANCH  39  40
ATOM     40  O1  UNL     1     136.230 111.807 129.700  0.00  0.00    +0.000 OA
ATOM     41  H9  UNL     1     137.202 112.023 129.798  0.00  0.00    +0.000 HD
ENDBRANCH  39  40
ENDBRANCH  38  39
ENDBRANCH  35  38
ENDBRANCH  33  35
ENDBRANCH   5  33
TORSDOF 9
ENDMDL
MODEL 5
REMARK VINA RESULT:      -9.7      1.830      3.881
REMARK  Name = aganitha_data/bbio_mols_pdbqt/BB_35.pdb
REMARK  9 active torsions:
REMARK  status: ('A' for Active; 'I' for Inactive)
REMARK    1  A    between atoms: C1_1  and  N4_31
REMARK    2  A    between atoms: C2_2  and  C9_14
REMARK    3  A    between atoms: C5_5  and  N1_7
REMARK    4  A    between atoms: N1_7  and  S1_8
REMARK    5  A    between atoms: S1_8  and  C7_9
REMARK    6  A    between atoms: C7_9  and  C8_10
REMARK    7  A    between atoms: C8_10  and  O1_11
REMARK    8  A    between atoms: N2_15  and  C10_16
REMARK    9  A    between atoms: C14_20  and  N3_22
REMARK                            x       y       z     vdW  Elec       q    Type
REMARK                         _______ _______ _______ _____ _____    ______ ____
ROOT
ATOM      1  C1  UNL     1     131.689 116.478 130.536  0.00  0.00    +0.000 A 
ATOM      2  C2  UNL     1     131.003 115.486 131.139  0.00  0.00    +0.000 A 
ATOM      3  C3  UNL     1     131.452 114.161 130.963  0.00  0.00    +0.000 A 
ATOM      4  C4  UNL     1     132.553 113.867 130.206  0.00  0.00    +0.000 A 
ATOM      5  C5  UNL     1     133.264 114.862 129.585  0.00  0.00    +0.000 A 
ATOM      6  C6  UNL     1     132.825 116.141 129.758  0.00  0.00    +0.000 A 
ENDROOT
BRANCH   1   7
ATOM      7  N4  UNL     1     131.350 117.843 130.610  0.00  0.00    +0.000 N 
ATOM      8  C21 UNL     1     131.037 118.432 131.880  0.00  0.00    +0.000 C 
ATOM      9  C22 UNL     1     132.026 119.510 132.254  0.00  0.00    +0.000 C 
ATOM     10  C23 UNL     1     132.689 120.116 131.060  0.00  0.00    +0.000 C 
ATOM     11  C24 UNL     1     131.931 120.002 129.795  0.00  0.00    +0.000 C 
ATOM     12  C25 UNL     1     131.363 118.673 129.446  0.00  0.00    +0.000 C 
ATOM     13  C26 UNL     1     134.217 119.949 130.947  0.00  0.00    +0.000 C 
ATOM     14  C27 UNL     1     133.594 121.256 131.264  0.00  0.00    +0.000 C 
ENDBRANCH   1   7
BRANCH   2  15
ATOM     15  C9  UNL     1     129.853 115.663 131.985  0.00  0.00    +0.000 C 
ATOM     16  N2  UNL     1     129.682 115.405 133.343  0.00  0.00    +0.000 N 
ATOM     17  O4  UNL     1     128.810 116.134 131.392  0.00  0.00    +0.000 OA
ATOM     18  H10 UNL     1     130.512 114.998 133.837  0.00  0.00    +0.000 HD
BRANCH  16  19
ATOM     19  C10 UNL     1     128.539 115.604 134.153  0.00  0.00    +0.000 A 
ATOM     20  C11 UNL     1     127.389 114.857 133.881  0.00  0.00    +0.000 A 
ATOM     21  C12 UNL     1     126.243 114.967 134.626  0.00  0.00    +0.000 A 
ATOM     22  C13 UNL     1     126.170 115.825 135.689  0.00  0.00    +0.000 A 
ATOM     23  C14 UNL     1     127.279 116.584 135.996  0.00  0.00    +0.000 A 
ATOM     24  C15 UNL     1     128.443 116.456 135.217  0.00  0.00    +0.000 A 
BRANCH  23  25
ATOM     25  N3  UNL     1     127.265 117.501 137.082  0.00  0.00    +0.000 N 
ATOM     26  C16 UNL     1     127.668 118.890 136.964  0.00  0.00    +0.000 C 
ATOM     27  C17 UNL     1     128.644 119.214 138.107  0.00  0.00    +0.000 C 
ATOM     28  C18 UNL     1     129.132 117.930 138.763  0.00  0.00    +0.000 C 
ATOM     29  C19 UNL     1     127.904 117.330 139.437  0.00  0.00    +0.000 C 
ATOM     30  C20 UNL     1     126.823 117.092 138.398  0.00  0.00    +0.000 C 
ATOM     31  F1  UNL     1     130.095 118.227 139.674  0.00  0.00    +0.000 F 
ATOM     32  F2  UNL     1     129.564 117.052 137.784  0.00  0.00    +0.000 F 
ENDBRANCH  23  25
ENDBRANCH  16  19
ENDBRANCH   2  15
BRANCH   5  33
ATOM     33  N1  UNL     1     134.407 114.577 128.789  0.00  0.00    +0.000 N 
ATOM     34  H4  UNL     1     135.002 115.383 128.496  0.00  0.00    +0.000 HD
BRANCH  33  35
ATOM     35  S1  UNL     1     134.807 112.975 128.323  0.00  0.00    +0.000 S 
ATOM     36  O2  UNL     1     134.279 112.708 126.951  0.00  0.00    +0.000 OA
ATOM     37  O3  UNL     1     134.176 112.003 129.262  0.00  0.00    +0.000 OA
BRANCH  35  38
ATOM     38  C7  UNL     1     136.578 112.846 128.288  0.00  0.00    +0.000 C 
BRANCH  38  39
ATOM     39  C8  UNL     1     137.043 112.244 129.595  0.00  0.00    +0.000 C 
BRANCH  39  40
ATOM     40  O1  UNL     1     136.490 112.926 130.655  0.00  0.00    +0.000 OA
ATOM     41  H9  UNL     1     135.492 112.885 130.602  0.00  0.00    +0.000 HD
ENDBRANCH  39  40
ENDBRANCH  38  39
ENDBRANCH  35  38
ENDBRANCH  33  35
ENDBRANCH   5  33
TORSDOF 9
ENDMDL
MODEL 6
REMARK VINA RESULT:      -9.5      4.010      8.664
REMARK  Name = aganitha_data/bbio_mols_pdbqt/BB_35.pdb
REMARK  9 active torsions:
REMARK  status: ('A' for Active; 'I' for Inactive)
REMARK    1  A    between atoms: C1_1  and  N4_31
REMARK    2  A    between atoms: C2_2  and  C9_14
REMARK    3  A    between atoms: C5_5  and  N1_7
REMARK    4  A    between atoms: N1_7  and  S1_8
REMARK    5  A    between atoms: S1_8  and  C7_9
REMARK    6  A    between atoms: C7_9  and  C8_10
REMARK    7  A    between atoms: C8_10  and  O1_11
REMARK    8  A    between atoms: N2_15  and  C10_16
REMARK    9  A    between atoms: C14_20  and  N3_22
REMARK                            x       y       z     vdW  Elec       q    Type
REMARK                         _______ _______ _______ _____ _____    ______ ____
ROOT
ATOM      1  C1  UNL     1     128.961 117.005 134.509  0.00  0.00    +0.000 A 
ATOM      2  C2  UNL     1     129.559 117.953 133.759  0.00  0.00    +0.000 A 
ATOM      3  C3  UNL     1     129.612 119.269 134.264  0.00  0.00    +0.000 A 
ATOM      4  C4  UNL     1     129.078 119.597 135.480  0.00  0.00    +0.000 A 
ATOM      5  C5  UNL     1     128.466 118.647 136.258  0.00  0.00    +0.000 A 
ATOM      6  C6  UNL     1     128.418 117.377 135.765  0.00  0.00    +0.000 A 
ENDROOT
BRANCH   1   7
ATOM      7  N4  UNL     1     128.821 115.656 134.130  0.00  0.00    +0.000 N 
ATOM      8  C21 UNL     1     127.601 114.959 134.418  0.00  0.00    +0.000 C 
ATOM      9  C22 UNL     1     126.896 114.524 133.155  0.00  0.00    +0.000 C 
ATOM     10  C23 UNL     1     127.834 114.368 132.002  0.00  0.00    +0.000 C 
ATOM     11  C24 UNL     1     129.244 114.113 132.369  0.00  0.00    +0.000 C 
ATOM     12  C25 UNL     1     129.855 114.977 133.413  0.00  0.00    +0.000 C 
ATOM     13  C26 UNL     1     127.611 115.291 130.788  0.00  0.00    +0.000 C 
ATOM     14  C27 UNL     1     127.306 113.842 130.735  0.00  0.00    +0.000 C 
ENDBRANCH   1   7
BRANCH   2  15
ATOM     15  C9  UNL     1     130.185 117.732 132.483  0.00  0.00    +0.000 C 
ATOM     16  N2  UNL     1     131.526 117.794 132.112  0.00  0.00    +0.000 N 
ATOM     17  O4  UNL     1     129.376 117.432 131.526  0.00  0.00    +0.000 OA
ATOM     18  H10 UNL     1     132.197 118.063 132.871  0.00  0.00    +0.000 HD
BRANCH  16  19
ATOM     19  C10 UNL     1     132.115 117.557 130.847  0.00  0.00    +0.000 A 
ATOM     20  C11 UNL     1     132.185 118.614 129.934  0.00  0.00    +0.000 A 
ATOM     21  C12 UNL     1     132.758 118.483 128.695  0.00  0.00    +0.000 A 
ATOM     22  C13 UNL     1     133.297 117.294 128.287  0.00  0.00    +0.000 A 
ATOM     23  C14 UNL     1     133.251 116.222 129.153  0.00  0.00    +0.000 A 
ATOM     24  C15 UNL     1     132.658 116.379 130.419  0.00  0.00    +0.000 A 
BRANCH  23  25
ATOM     25  N3  UNL     1     133.786 114.957 128.787  0.00  0.00    +0.000 N 
ATOM     26  C16 UNL     1     133.111 114.027 127.901  0.00  0.00    +0.000 C 
ATOM     27  C17 UNL     1     133.120 112.636 128.556  0.00  0.00    +0.000 C 
ATOM     28  C18 UNL     1     133.506 112.747 130.025  0.00  0.00    +0.000 C 
ATOM     29  C19 UNL     1     134.960 113.204 130.026  0.00  0.00    +0.000 C 
ATOM     30  C20 UNL     1     135.076 114.522 129.280  0.00  0.00    +0.000 C 
ATOM     31  F1  UNL     1     133.374 111.532 130.619  0.00  0.00    +0.000 F 
ATOM     32  F2  UNL     1     132.740 113.730 130.626  0.00  0.00    +0.000 F 
ENDBRANCH  23  25
ENDBRANCH  16  19
ENDBRANCH   2  15
BRANCH   5  33
ATOM     33  N1  UNL     1     127.901 118.970 137.522  0.00  0.00    +0.000 N 
ATOM     34  H4  UNL     1     127.118 119.659 137.535  0.00  0.00    +0.000 HD
BRANCH  33  35
ATOM     35  S1  UNL     1     128.474 118.261 138.976  0.00  0.00    +0.000 S 
ATOM     36  O2  UNL     1     127.722 118.826 140.136  0.00  0.00    +0.000 OA
ATOM     37  O3  UNL     1     129.920 118.580 139.157  0.00  0.00    +0.000 OA
BRANCH  35  38
ATOM     38  C7  UNL     1     128.161 116.515 138.888  0.00  0.00    +0.000 C 
BRANCH  38  39
ATOM     39  C8  UNL     1     126.685 116.279 139.116  0.00  0.00    +0.000 C 
BRANCH  39  40
ATOM     40  O1  UNL     1     125.942 117.028 138.233  0.00  0.00    +0.000 OA
ATOM     41  H9  UNL     1     125.004 116.681 138.197  0.00  0.00    +0.000 HD
ENDBRANCH  39  40
ENDBRANCH  38  39
ENDBRANCH  35  38
ENDBRANCH  33  35
ENDBRANCH   5  33
TORSDOF 9
ENDMDL
MODEL 7
REMARK VINA RESULT:      -9.5      1.199      1.758
REMARK  Name = aganitha_data/bbio_mols_pdbqt/BB_35.pdb
REMARK  9 active torsions:
REMARK  status: ('A' for Active; 'I' for Inactive)
REMARK    1  A    between atoms: C1_1  and  N4_31
REMARK    2  A    between atoms: C2_2  and  C9_14
REMARK    3  A    between atoms: C5_5  and  N1_7
REMARK    4  A    between atoms: N1_7  and  S1_8
REMARK    5  A    between atoms: S1_8  and  C7_9
REMARK    6  A    between atoms: C7_9  and  C8_10
REMARK    7  A    between atoms: C8_10  and  O1_11
REMARK    8  A    between atoms: N2_15  and  C10_16
REMARK    9  A    between atoms: C14_20  and  N3_22
REMARK                            x       y       z     vdW  Elec       q    Type
REMARK                         _______ _______ _______ _____ _____    ______ ____
ROOT
ATOM      1  C1  UNL     1     131.116 115.448 131.042  0.00  0.00    +0.000 A 
ATOM      2  C2  UNL     1     131.262 116.768 131.272  0.00  0.00    +0.000 A 
ATOM      3  C3  UNL     1     132.246 117.467 130.544  0.00  0.00    +0.000 A 
ATOM      4  C4  UNL     1     133.043 116.843 129.623  0.00  0.00    +0.000 A 
ATOM      5  C5  UNL     1     132.909 115.500 129.375  0.00  0.00    +0.000 A 
ATOM      6  C6  UNL     1     131.956 114.829 130.081  0.00  0.00    +0.000 A 
ENDROOT
BRANCH   1   7
ATOM      7  N4  UNL     1     130.188 114.619 131.702  0.00  0.00    +0.000 N 
ATOM      8  C21 UNL     1     130.071 114.677 133.131  0.00  0.00    +0.000 C 
ATOM      9  C22 UNL     1     128.702 115.147 133.560  0.00  0.00    +0.000 C 
ATOM     10  C23 UNL     1     127.655 114.875 132.528  0.00  0.00    +0.000 C 
ATOM     11  C24 UNL     1     127.967 113.772 131.593  0.00  0.00    +0.000 C 
ATOM     12  C25 UNL     1     129.317 113.753 130.971  0.00  0.00    +0.000 C 
ATOM     13  C26 UNL     1     126.941 116.096 131.915  0.00  0.00    +0.000 C 
ATOM     14  C27 UNL     1     126.254 115.178 132.854  0.00  0.00    +0.000 C 
ENDBRANCH   1   7
BRANCH   2  15
ATOM     15  C9  UNL     1     130.469 117.547 132.186  0.00  0.00    +0.000 C 
ATOM     16  N2  UNL     1     130.813 118.143 133.396  0.00  0.00    +0.000 N 
ATOM     17  O4  UNL     1     129.243 117.719 131.830  0.00  0.00    +0.000 OA
ATOM     18  H10 UNL     1     131.800 117.992 133.715  0.00  0.00    +0.000 HD
BRANCH  16  19
ATOM     19  C10 UNL     1     130.012 118.918 134.269  0.00  0.00    +0.000 A 
ATOM     20  C11 UNL     1     129.865 120.283 134.006  0.00  0.00    +0.000 A 
ATOM     21  C12 UNL     1     129.091 121.106 134.784  0.00  0.00    +0.000 A 
ATOM     22  C13 UNL     1     128.415 120.622 135.870  0.00  0.00    +0.000 A 
ATOM     23  C14 UNL     1     128.530 119.282 136.170  0.00  0.00    +0.000 A 
ATOM     24  C15 UNL     1     129.330 118.457 135.359  0.00  0.00    +0.000 A 
BRANCH  23  25
ATOM     25  N3  UNL     1     127.861 118.719 137.290  0.00  0.00    +0.000 N 
ATOM     26  C16 UNL     1     128.320 118.868 138.658  0.00  0.00    +0.000 C 
ATOM     27  C17 UNL     1     128.324 117.483 139.326  0.00  0.00    +0.000 C 
ATOM     28  C18 UNL     1     128.189 116.390 138.274  0.00  0.00    +0.000 C 
ATOM     29  C19 UNL     1     126.787 116.558 137.698  0.00  0.00    +0.000 C 
ATOM     30  C20 UNL     1     126.641 117.956 137.124  0.00  0.00    +0.000 C 
ATOM     31  F1  UNL     1     128.334 115.176 138.864  0.00  0.00    +0.000 F 
ATOM     32  F2  UNL     1     129.106 116.614 137.261  0.00  0.00    +0.000 F 
ENDBRANCH  23  25
ENDBRANCH  16  19
ENDBRANCH   2  15
BRANCH   5  33
ATOM     33  N1  UNL     1     133.731 114.832 128.426  0.00  0.00    +0.000 N 
ATOM     34  H4  UNL     1     134.416 115.411 127.892  0.00  0.00    +0.000 HD
BRANCH  33  35
ATOM     35  S1  UNL     1     133.612 113.142 128.158  0.00  0.00    +0.000 S 
ATOM     36  O2  UNL     1     134.370 112.414 129.220  0.00  0.00    +0.000 OA
ATOM     37  O3  UNL     1     134.211 112.797 126.837  0.00  0.00    +0.000 OA
BRANCH  35  38
ATOM     38  C7  UNL     1     131.897 112.694 128.274  0.00  0.00    +0.000 C 
BRANCH  38  39
ATOM     39  C8  UNL     1     131.413 112.284 126.900  0.00  0.00    +0.000 C 
BRANCH  39  40
ATOM     40  O1  UNL     1     131.984 111.088 126.534  0.00  0.00    +0.000 OA
ATOM     41  H9  UNL     1     131.859 110.413 127.262  0.00  0.00    +0.000 HD
ENDBRANCH  39  40
ENDBRANCH  38  39
ENDBRANCH  35  38
ENDBRANCH  33  35
ENDBRANCH   5  33
TORSDOF 9
ENDMDL
MODEL 8
REMARK VINA RESULT:      -9.4      4.035      8.494
REMARK  Name = aganitha_data/bbio_mols_pdbqt/BB_35.pdb
REMARK  9 active torsions:
REMARK  status: ('A' for Active; 'I' for Inactive)
REMARK    1  A    between atoms: C1_1  and  N4_31
REMARK    2  A    between atoms: C2_2  and  C9_14
REMARK    3  A    between atoms: C5_5  and  N1_7
REMARK    4  A    between atoms: N1_7  and  S1_8
REMARK    5  A    between atoms: S1_8  and  C7_9
REMARK    6  A    between atoms: C7_9  and  C8_10
REMARK    7  A    between atoms: C8_10  and  O1_11
REMARK    8  A    between atoms: N2_15  and  C10_16
REMARK    9  A    between atoms: C14_20  and  N3_22
REMARK                            x       y       z     vdW  Elec       q    Type
REMARK                         _______ _______ _______ _____ _____    ______ ____
ROOT
ATOM      1  C1  UNL     1     128.482 116.633 134.477  0.00  0.00    +0.000 A 
ATOM      2  C2  UNL     1     129.141 117.630 133.853  0.00  0.00    +0.000 A 
ATOM      3  C3  UNL     1     129.199 118.890 134.485  0.00  0.00    +0.000 A 
ATOM      4  C4  UNL     1     128.609 119.116 135.698  0.00  0.00    +0.000 A 
ATOM      5  C5  UNL     1     127.934 118.115 136.349  0.00  0.00    +0.000 A 
ATOM      6  C6  UNL     1     127.881 116.899 135.734  0.00  0.00    +0.000 A 
ENDROOT
BRANCH   1   7
ATOM      7  N4  UNL     1     128.329 115.331 133.962  0.00  0.00    +0.000 N 
ATOM      8  C21 UNL     1     127.042 114.893 133.504  0.00  0.00    +0.000 C 
ATOM      9  C22 UNL     1     127.053 114.581 132.026  0.00  0.00    +0.000 C 
ATOM     10  C23 UNL     1     128.416 114.222 131.528  0.00  0.00    +0.000 C 
ATOM     11  C24 UNL     1     129.343 113.702 132.556  0.00  0.00    +0.000 C 
ATOM     12  C25 UNL     1     129.446 114.448 133.837  0.00  0.00    +0.000 C 
ATOM     13  C26 UNL     1     129.039 115.148 130.465  0.00  0.00    +0.000 C 
ATOM     14  C27 UNL     1     128.560 113.786 130.131  0.00  0.00    +0.000 C 
ENDBRANCH   1   7
BRANCH   2  15
ATOM     15  C9  UNL     1     129.829 117.514 132.595  0.00  0.00    +0.000 C 
ATOM     16  N2  UNL     1     131.190 117.548 132.303  0.00  0.00    +0.000 N 
ATOM     17  O4  UNL     1     129.063 117.356 131.570  0.00  0.00    +0.000 OA
ATOM     18  H10 UNL     1     131.827 117.701 133.121  0.00  0.00    +0.000 HD
BRANCH  16  19
ATOM     19  C10 UNL     1     131.839 117.416 131.052  0.00  0.00    +0.000 A 
ATOM     20  C11 UNL     1     131.922 118.538 130.221  0.00  0.00    +0.000 A 
ATOM     21  C12 UNL     1     132.552 118.510 129.003  0.00  0.00    +0.000 A 
ATOM     22  C13 UNL     1     133.138 117.365 128.536  0.00  0.00    +0.000 A 
ATOM     23  C14 UNL     1     133.080 116.232 129.319  0.00  0.00    +0.000 A 
ATOM     24  C15 UNL     1     132.429 116.285 130.565  0.00  0.00    +0.000 A 
BRANCH  23  25
ATOM     25  N3  UNL     1     133.661 115.009 128.888  0.00  0.00    +0.000 N 
ATOM     26  C16 UNL     1     133.004 114.084 127.985  0.00  0.00    +0.000 C 
ATOM     27  C17 UNL     1     133.096 112.670 128.583  0.00  0.00    +0.000 C 
ATOM     28  C18 UNL     1     133.520 112.742 130.044  0.00  0.00    +0.000 C 
ATOM     29  C19 UNL     1     134.951 113.267 130.022  0.00  0.00    +0.000 C 
ATOM     30  C20 UNL     1     134.984 114.616 129.327  0.00  0.00    +0.000 C 
ATOM     31  F1  UNL     1     133.461 111.500 130.591  0.00  0.00    +0.000 F 
ATOM     32  F2  UNL     1     132.728 113.664 130.705  0.00  0.00    +0.000 F 
ENDBRANCH  23  25
ENDBRANCH  16  19
ENDBRANCH   2  15
BRANCH   5  33
ATOM     33  N1  UNL     1     127.311 118.331 137.608  0.00  0.00    +0.000 N 
ATOM     34  H4  UNL     1     126.557 119.052 137.652  0.00  0.00    +0.000 HD
BRANCH  33  35
ATOM     35  S1  UNL     1     127.769 117.451 139.007  0.00  0.00    +0.000 S 
ATOM     36  O2  UNL     1     126.749 116.397 139.291  0.00  0.00    +0.000 OA
ATOM     37  O3  UNL     1     127.832 118.368 140.182  0.00  0.00    +0.000 OA
BRANCH  35  38
ATOM     38  C7  UNL     1     129.324 116.663 138.667  0.00  0.00    +0.000 C 
BRANCH  38  39
ATOM     39  C8  UNL     1     130.291 117.708 138.156  0.00  0.00    +0.000 C 
BRANCH  39  40
ATOM     40  O1  UNL     1     130.258 118.821 138.963  0.00  0.00    +0.000 OA
ATOM     41  H9  UNL     1     130.666 118.609 139.852  0.00  0.00    +0.000 HD
ENDBRANCH  39  40
ENDBRANCH  38  39
ENDBRANCH  35  38
ENDBRANCH  33  35
ENDBRANCH   5  33
TORSDOF 9
ENDMDL
MODEL 9
REMARK VINA RESULT:      -9.3      1.423      1.772
REMARK  Name = aganitha_data/bbio_mols_pdbqt/BB_35.pdb
REMARK  9 active torsions:
REMARK  status: ('A' for Active; 'I' for Inactive)
REMARK    1  A    between atoms: C1_1  and  N4_31
REMARK    2  A    between atoms: C2_2  and  C9_14
REMARK    3  A    between atoms: C5_5  and  N1_7
REMARK    4  A    between atoms: N1_7  and  S1_8
REMARK    5  A    between atoms: S1_8  and  C7_9
REMARK    6  A    between atoms: C7_9  and  C8_10
REMARK    7  A    between atoms: C8_10  and  O1_11
REMARK    8  A    between atoms: N2_15  and  C10_16
REMARK    9  A    between atoms: C14_20  and  N3_22
REMARK                            x       y       z     vdW  Elec       q    Type
REMARK                         _______ _______ _______ _____ _____    ______ ____
ROOT
ATOM      1  C1  UNL     1     129.431 114.854 130.737  0.00  0.00    +0.000 A 
ATOM      2  C2  UNL     1     130.360 115.651 131.303  0.00  0.00    +0.000 A 
ATOM      3  C3  UNL     1     131.684 115.577 130.825  0.00  0.00    +0.000 A 
ATOM      4  C4  UNL     1     132.040 114.726 129.813  0.00  0.00    +0.000 A 
ATOM      5  C5  UNL     1     131.109 113.907 129.225  0.00  0.00    +0.000 A 
ATOM      6  C6  UNL     1     129.830 113.984 129.692  0.00  0.00    +0.000 A 
ENDROOT
BRANCH   1   7
ATOM      7  N4  UNL     1     128.077 114.809 131.120  0.00  0.00    +0.000 N 
ATOM      8  C21 UNL     1     127.475 113.553 131.465  0.00  0.00    +0.000 C 
ATOM      9  C22 UNL     1     127.023 113.527 132.906  0.00  0.00    +0.000 C 
ATOM     10  C23 UNL     1     126.749 114.895 133.443  0.00  0.00    +0.000 C 
ATOM     11  C24 UNL     1     126.422 115.916 132.424  0.00  0.00    +0.000 C 
ATOM     12  C25 UNL     1     127.296 116.002 131.225  0.00  0.00    +0.000 C 
ATOM     13  C26 UNL     1     127.622 115.374 134.619  0.00  0.00    +0.000 C 
ATOM     14  C27 UNL     1     126.195 115.018 134.799  0.00  0.00    +0.000 C 
ENDBRANCH   1   7
BRANCH   2  15
ATOM     15  C9  UNL     1     130.111 116.609 132.348  0.00  0.00    +0.000 C 
ATOM     16  N2  UNL     1     129.913 117.986 132.282  0.00  0.00    +0.000 N 
ATOM     17  O4  UNL     1     130.066 116.116 133.537  0.00  0.00    +0.000 OA
ATOM     18  H10 UNL     1     129.972 118.409 131.325  0.00  0.00    +0.000 HD
BRANCH  16  19
ATOM     19  C10 UNL     1     129.655 118.902 133.329  0.00  0.00    +0.000 A 
ATOM     20  C11 UNL     1     129.645 120.269 133.034  0.00  0.00    +0.000 A 
ATOM     21  C12 UNL     1     129.383 121.227 133.980  0.00  0.00    +0.000 A 
ATOM     22  C13 UNL     1     129.113 120.885 135.277  0.00  0.00    +0.000 A 
ATOM     23  C14 UNL     1     129.113 119.549 135.616  0.00  0.00    +0.000 A 
ATOM     24  C15 UNL     1     129.385 118.584 134.630  0.00  0.00    +0.000 A 
BRANCH  23  25
ATOM     25  N3  UNL     1     128.850 119.129 136.948  0.00  0.00    +0.000 N 
ATOM     26  C16 UNL     1     129.833 119.175 138.013  0.00  0.00    +0.000 C 
ATOM     27  C17 UNL     1     129.841 117.815 138.730  0.00  0.00    +0.000 C 
ATOM     28  C18 UNL     1     129.097 116.778 137.901  0.00  0.00    +0.000 C 
ATOM     29  C19 UNL     1     127.640 117.229 137.905  0.00  0.00    +0.000 C 
ATOM     30  C20 UNL     1     127.544 118.630 137.328  0.00  0.00    +0.000 C 
ATOM     31  F1  UNL     1     129.233 115.556 138.479  0.00  0.00    +0.000 F 
ATOM     32  F2  UNL     1     129.561 116.815 136.598  0.00  0.00    +0.000 F 
ENDBRANCH  23  25
ENDBRANCH  16  19
ENDBRANCH   2  15
BRANCH   5  33
ATOM     33  N1  UNL     1     131.459 113.013 128.177  0.00  0.00    +0.000 N 
ATOM     34  H4  UNL     1     130.683 112.501 127.704  0.00  0.00    +0.000 HD
BRANCH  33  35
ATOM     35  S1  UNL     1     133.089 112.775 127.698  0.00  0.00    +0.000 S 
ATOM     36  O2  UNL     1     133.580 113.989 126.977  0.00  0.00    +0.000 OA
ATOM     37  O3  UNL     1     133.178 111.612 126.769  0.00  0.00    +0.000 OA
BRANCH  35  38
ATOM     38  C7  UNL     1     134.060 112.556 129.170  0.00  0.00    +0.000 C 
BRANCH  38  39
ATOM     39  C8  UNL     1     135.433 113.145 128.933  0.00  0.00    +0.000 C 
BRANCH  39  40
ATOM     40  O1  UNL     1     136.020 112.555 127.837  0.00  0.00    +0.000 OA
ATOM     41  H9  UNL     1     135.431 112.664 127.036  0.00  0.00    +0.000 HD
ENDBRANCH  39  40
ENDBRANCH  38  39
ENDBRANCH  35  38
ENDBRANCH  33  35
ENDBRANCH   5  33
TORSDOF 9
ENDMDL
