MODEL 1
REMARK VINA RESULT:     -12.0      0.000      0.000
REMARK  Name = aganitha_data/bbio_mols_pdbqt/BB_39.pdb
REMARK  8 active torsions:
REMARK  status: ('A' for Active; 'I' for Inactive)
REMARK    1  A    between atoms: C4_4  and  N2_15
REMARK    2  A    between atoms: C6_6  and  N1_7
REMARK    3  A    between atoms: N2_15  and  S1_16
REMARK    4  A    between atoms: S1_16  and  C14_17
REMARK    5  A    between atoms: C14_17  and  C15_18
REMARK    6  A    between atoms: C15_18  and  O1_19
REMARK    7  A    between atoms: N5_26  and  C18_27
REMARK    8  A    between atoms: C22_31  and  C24_33
REMARK                            x       y       z     vdW  Elec       q    Type
REMARK                         _______ _______ _______ _____ _____    ______ ____
ROOT
ATOM      1  C1  UNL     1     131.559 117.338 131.042  0.00  0.00    +0.000 A 
ATOM      2  C2  UNL     1     132.080 118.635 131.170  0.00  0.00    +0.000 A 
ATOM      3  C3  UNL     1     131.436 119.546 131.973  0.00  0.00    +0.000 A 
ATOM      4  C4  UNL     1     130.308 119.181 132.633  0.00  0.00    +0.000 A 
ATOM      5  C5  UNL     1     129.814 117.912 132.500  0.00  0.00    +0.000 A 
ATOM      6  C6  UNL     1     130.448 116.940 131.680  0.00  0.00    +0.000 A 
ATOM      7  N3  UNL     1     133.217 119.031 130.575  0.00  0.00    +0.000 NA
ATOM      8  C16 UNL     1     133.903 118.168 129.820  0.00  0.00    +0.000 A 
ATOM      9  N4  UNL     1     133.421 116.947 129.692  0.00  0.00    +0.000 NA
ATOM     10  C17 UNL     1     132.269 116.455 130.258  0.00  0.00    +0.000 A 
ATOM     11  N5  UNL     1     131.852 115.178 129.871  0.00  0.00    +0.000 N 
ATOM     12  H22 UNL     1     130.951 114.788 129.942  0.00  0.00    +0.000 HD
ENDROOT
BRANCH   6  13
ATOM     13  N1  UNL     1     129.859 115.670 131.648  0.00  0.00    +0.000 N 
ATOM     14  C7  UNL     1     128.797 115.401 130.696  0.00  0.00    +0.000 C 
ATOM     15  C8  UNL     1     128.454 113.931 130.816  0.00  0.00    +0.000 C 
ATOM     16  C9  UNL     1     127.891 113.725 132.220  0.00  0.00    +0.000 C 
ATOM     17  C10 UNL     1     128.892 114.122 133.273  0.00  0.00    +0.000 C 
ATOM     18  C11 UNL     1     130.182 114.651 132.615  0.00  0.00    +0.000 C 
ATOM     19  C12 UNL     1     126.486 114.175 132.401  0.00  0.00    +0.000 C 
ATOM     20  C13 UNL     1     126.842 112.734 132.453  0.00  0.00    +0.000 C 
ENDBRANCH   6  13
BRANCH  11  21
ATOM     21  C18 UNL     1     132.801 114.318 129.218  0.00  0.00    +0.000 A 
ATOM     22  C19 UNL     1     132.596 113.756 127.983  0.00  0.00    +0.000 A 
ATOM     23  C20 UNL     1     133.551 112.916 127.405  0.00  0.00    +0.000 A 
ATOM     24  C21 UNL     1     134.724 112.632 128.059  0.00  0.00    +0.000 A 
ATOM     25  C22 UNL     1     134.951 113.192 129.308  0.00  0.00    +0.000 A 
ATOM     26  C23 UNL     1     133.996 114.011 129.852  0.00  0.00    +0.000 A 
ATOM     27  C24 UNL     1     136.233 112.887 130.034  0.00  0.00    +0.000 C 
ENDBRANCH  11  21
BRANCH   4  28
ATOM     28  N2  UNL     1     129.636 120.128 133.470  0.00  0.00    +0.000 N 
ATOM     29  H15 UNL     1     128.893 120.732 133.059  0.00  0.00    +0.000 HD
BRANCH  28  30
ATOM     30  S1  UNL     1     130.024 120.291 135.125  0.00  0.00    +0.000 S 
ATOM     31  O2  UNL     1     131.218 121.179 135.366  0.00  0.00    +0.000 OA
ATOM     32  O3  UNL     1     128.857 120.862 135.876  0.00  0.00    +0.000 OA
BRANCH  30  33
ATOM     33  C14 UNL     1     130.423 118.707 135.859  0.00  0.00    +0.000 C 
BRANCH  33  34
ATOM     34  C15 UNL     1     130.104 118.764 137.355  0.00  0.00    +0.000 C 
BRANCH  34  35
ATOM     35  O1  UNL     1     130.757 119.849 137.926  0.00  0.00    +0.000 OA
ATOM     36  H20 UNL     1     131.668 119.882 137.548  0.00  0.00    +0.000 HD
ENDBRANCH  34  35
ENDBRANCH  33  34
ENDBRANCH  30  33
ENDBRANCH  28  30
ENDBRANCH   4  28
TORSDOF 7
ENDMDL
MODEL 2
REMARK VINA RESULT:     -11.3      0.900      1.237
REMARK  Name = aganitha_data/bbio_mols_pdbqt/BB_39.pdb
REMARK  8 active torsions:
REMARK  status: ('A' for Active; 'I' for Inactive)
REMARK    1  A    between atoms: C4_4  and  N2_15
REMARK    2  A    between atoms: C6_6  and  N1_7
REMARK    3  A    between atoms: N2_15  and  S1_16
REMARK    4  A    between atoms: S1_16  and  C14_17
REMARK    5  A    between atoms: C14_17  and  C15_18
REMARK    6  A    between atoms: C15_18  and  O1_19
REMARK    7  A    between atoms: N5_26  and  C18_27
REMARK    8  A    between atoms: C22_31  and  C24_33
REMARK                            x       y       z     vdW  Elec       q    Type
REMARK                         _______ _______ _______ _____ _____    ______ ____
ROOT
ATOM      1  C1  UNL     1     131.717 117.191 130.976  0.00  0.00    +0.000 A 
ATOM      2  C2  UNL     1     132.272 118.473 131.115  0.00  0.00    +0.000 A 
ATOM      3  C3  UNL     1     131.679 119.378 131.963  0.00  0.00    +0.000 A 
ATOM      4  C4  UNL     1     130.569 119.021 132.656  0.00  0.00    +0.000 A 
ATOM      5  C5  UNL     1     130.041 117.767 132.511  0.00  0.00    +0.000 A 
ATOM      6  C6  UNL     1     130.622 116.802 131.645  0.00  0.00    +0.000 A 
ATOM      7  N3  UNL     1     133.394 118.858 130.486  0.00  0.00    +0.000 NA
ATOM      8  C16 UNL     1     134.032 117.999 129.687  0.00  0.00    +0.000 A 
ATOM      9  N4  UNL     1     133.518 116.793 129.547  0.00  0.00    +0.000 NA
ATOM     10  C17 UNL     1     132.377 116.312 130.145  0.00  0.00    +0.000 A 
ATOM     11  N5  UNL     1     131.916 115.055 129.744  0.00  0.00    +0.000 N 
ATOM     12  H22 UNL     1     131.010 114.683 129.839  0.00  0.00    +0.000 HD
ENDROOT
BRANCH   6  13
ATOM     13  N1  UNL     1     130.003 115.546 131.605  0.00  0.00    +0.000 N 
ATOM     14  C7  UNL     1     128.936 115.308 130.650  0.00  0.00    +0.000 C 
ATOM     15  C8  UNL     1     128.558 113.846 130.762  0.00  0.00    +0.000 C 
ATOM     16  C9  UNL     1     127.989 113.645 132.164  0.00  0.00    +0.000 C 
ATOM     17  C10 UNL     1     128.998 114.012 133.220  0.00  0.00    +0.000 C 
ATOM     18  C11 UNL     1     130.301 114.515 132.567  0.00  0.00    +0.000 C 
ATOM     19  C12 UNL     1     126.594 114.127 132.347  0.00  0.00    +0.000 C 
ATOM     20  C13 UNL     1     126.916 112.678 132.391  0.00  0.00    +0.000 C 
ENDBRANCH   6  13
BRANCH  11  21
ATOM     21  C18 UNL     1     132.821 114.190 129.035  0.00  0.00    +0.000 A 
ATOM     22  C19 UNL     1     132.554 113.657 127.799  0.00  0.00    +0.000 A 
ATOM     23  C20 UNL     1     133.467 112.811 127.166  0.00  0.00    +0.000 A 
ATOM     24  C21 UNL     1     134.661 112.492 127.764  0.00  0.00    +0.000 A 
ATOM     25  C22 UNL     1     134.950 113.022 129.013  0.00  0.00    +0.000 A 
ATOM     26  C23 UNL     1     134.034 113.848 129.612  0.00  0.00    +0.000 A 
ATOM     27  C24 UNL     1     136.255 112.679 129.679  0.00  0.00    +0.000 C 
ENDBRANCH  11  21
BRANCH   4  28
ATOM     28  N2  UNL     1     129.950 119.963 133.540  0.00  0.00    +0.000 N 
ATOM     29  H15 UNL     1     129.254 120.637 133.157  0.00  0.00    +0.000 HD
BRANCH  28  30
ATOM     30  S1  UNL     1     130.326 120.004 135.205  0.00  0.00    +0.000 S 
ATOM     31  O2  UNL     1     131.151 118.825 135.653  0.00  0.00    +0.000 OA
ATOM     32  O3  UNL     1     131.084 121.257 135.533  0.00  0.00    +0.000 OA
BRANCH  30  33
ATOM     33  C14 UNL     1     128.842 119.986 136.208  0.00  0.00    +0.000 C 
BRANCH  33  34
ATOM     34  C15 UNL     1     128.095 121.306 136.005  0.00  0.00    +0.000 C 
BRANCH  34  35
ATOM     35  O1  UNL     1     128.033 121.599 134.648  0.00  0.00    +0.000 OA
ATOM     36  H20 UNL     1     128.747 121.087 134.200  0.00  0.00    +0.000 HD
ENDBRANCH  34  35
ENDBRANCH  33  34
ENDBRANCH  30  33
ENDBRANCH  28  30
ENDBRANCH   4  28
TORSDOF 7
ENDMDL
MODEL 3
REMARK VINA RESULT:     -11.0      2.632      4.300
REMARK  Name = aganitha_data/bbio_mols_pdbqt/BB_39.pdb
REMARK  8 active torsions:
REMARK  status: ('A' for Active; 'I' for Inactive)
REMARK    1  A    between atoms: C4_4  and  N2_15
REMARK    2  A    between atoms: C6_6  and  N1_7
REMARK    3  A    between atoms: N2_15  and  S1_16
REMARK    4  A    between atoms: S1_16  and  C14_17
REMARK    5  A    between atoms: C14_17  and  C15_18
REMARK    6  A    between atoms: C15_18  and  O1_19
REMARK    7  A    between atoms: N5_26  and  C18_27
REMARK    8  A    between atoms: C22_31  and  C24_33
REMARK                            x       y       z     vdW  Elec       q    Type
REMARK                         _______ _______ _______ _____ _____    ______ ____
ROOT
ATOM      1  C1  UNL     1     129.719 118.803 134.048  0.00  0.00    +0.000 A 
ATOM      2  C2  UNL     1     129.801 119.821 135.011  0.00  0.00    +0.000 A 
ATOM      3  C3  UNL     1     129.056 119.724 136.162  0.00  0.00    +0.000 A 
ATOM      4  C4  UNL     1     128.254 118.648 136.354  0.00  0.00    +0.000 A 
ATOM      5  C5  UNL     1     128.186 117.663 135.407  0.00  0.00    +0.000 A 
ATOM      6  C6  UNL     1     128.939 117.723 134.203  0.00  0.00    +0.000 A 
ATOM      7  N3  UNL     1     130.614 120.883 134.888  0.00  0.00    +0.000 NA
ATOM      8  C16 UNL     1     131.391 120.999 133.808  0.00  0.00    +0.000 A 
ATOM      9  N4  UNL     1     131.320 120.049 132.896  0.00  0.00    +0.000 NA
ATOM     10  C17 UNL     1     130.519 118.932 132.934  0.00  0.00    +0.000 A 
ATOM     11  N5  UNL     1     130.478 118.126 131.792  0.00  0.00    +0.000 N 
ATOM     12  H22 UNL     1     129.785 117.477 131.534  0.00  0.00    +0.000 HD
ENDROOT
BRANCH   6  13
ATOM     13  N1  UNL     1     128.802 116.640 133.326  0.00  0.00    +0.000 N 
ATOM     14  C7  UNL     1     127.699 116.622 132.383  0.00  0.00    +0.000 C 
ATOM     15  C8  UNL     1     127.888 115.405 131.502  0.00  0.00    +0.000 C 
ATOM     16  C9  UNL     1     127.754 114.183 132.407  0.00  0.00    +0.000 C 
ATOM     17  C10 UNL     1     128.782 114.203 133.507  0.00  0.00    +0.000 C 
ATOM     18  C11 UNL     1     129.648 115.476 133.410  0.00  0.00    +0.000 C 
ATOM     19  C12 UNL     1     126.358 113.829 132.775  0.00  0.00    +0.000 C 
ATOM     20  C13 UNL     1     127.164 112.948 131.892  0.00  0.00    +0.000 C 
ENDBRANCH   6  13
BRANCH  11  21
ATOM     21  C18 UNL     1     131.517 118.278 130.810  0.00  0.00    +0.000 A 
ATOM     22  C19 UNL     1     131.848 119.478 130.231  0.00  0.00    +0.000 A 
ATOM     23  C20 UNL     1     132.860 119.560 129.272  0.00  0.00    +0.000 A 
ATOM     24  C21 UNL     1     133.553 118.440 128.883  0.00  0.00    +0.000 A 
ATOM     25  C22 UNL     1     133.234 117.219 129.458  0.00  0.00    +0.000 A 
ATOM     26  C23 UNL     1     132.236 117.167 130.396  0.00  0.00    +0.000 A 
ATOM     27  C24 UNL     1     133.987 115.985 129.040  0.00  0.00    +0.000 C 
ENDBRANCH  11  21
BRANCH   4  28
ATOM     28  N2  UNL     1     127.477 118.545 137.553  0.00  0.00    +0.000 N 
ATOM     29  H15 UNL     1     126.590 119.086 137.631  0.00  0.00    +0.000 HD
BRANCH  28  30
ATOM     30  S1  UNL     1     127.971 117.558 138.855  0.00  0.00    +0.000 S 
ATOM     31  O2  UNL     1     129.334 116.948 138.650  0.00  0.00    +0.000 OA
ATOM     32  O3  UNL     1     128.003 118.355 140.126  0.00  0.00    +0.000 OA
BRANCH  30  33
ATOM     33  C14 UNL     1     126.843 116.189 139.099  0.00  0.00    +0.000 C 
BRANCH  33  34
ATOM     34  C15 UNL     1     126.739 115.398 137.792  0.00  0.00    +0.000 C 
BRANCH  34  35
ATOM     35  O1  UNL     1     127.983 114.868 137.472  0.00  0.00    +0.000 OA
ATOM     36  H20 UNL     1     128.664 115.540 137.712  0.00  0.00    +0.000 HD
ENDBRANCH  34  35
ENDBRANCH  33  34
ENDBRANCH  30  33
ENDBRANCH  28  30
ENDBRANCH   4  28
TORSDOF 7
ENDMDL
MODEL 4
REMARK VINA RESULT:     -10.8      4.218      7.332
REMARK  Name = aganitha_data/bbio_mols_pdbqt/BB_39.pdb
REMARK  8 active torsions:
REMARK  status: ('A' for Active; 'I' for Inactive)
REMARK    1  A    between atoms: C4_4  and  N2_15
REMARK    2  A    between atoms: C6_6  and  N1_7
REMARK    3  A    between atoms: N2_15  and  S1_16
REMARK    4  A    between atoms: S1_16  and  C14_17
REMARK    5  A    between atoms: C14_17  and  C15_18
REMARK    6  A    between atoms: C15_18  and  O1_19
REMARK    7  A    between atoms: N5_26  and  C18_27
REMARK    8  A    between atoms: C22_31  and  C24_33
REMARK                            x       y       z     vdW  Elec       q    Type
REMARK                         _______ _______ _______ _____ _____    ______ ____
ROOT
ATOM      1  C1  UNL     1     131.566 117.160 131.187  0.00  0.00    +0.000 A 
ATOM      2  C2  UNL     1     132.651 117.570 130.396  0.00  0.00    +0.000 A 
ATOM      3  C3  UNL     1     133.150 116.719 129.439  0.00  0.00    +0.000 A 
ATOM      4  C4  UNL     1     132.589 115.495 129.271  0.00  0.00    +0.000 A 
ATOM      5  C5  UNL     1     131.531 115.111 130.048  0.00  0.00    +0.000 A 
ATOM      6  C6  UNL     1     130.984 115.960 131.048  0.00  0.00    +0.000 A 
ATOM      7  N3  UNL     1     133.211 118.787 130.493  0.00  0.00    +0.000 NA
ATOM      8  C16 UNL     1     132.732 119.667 131.377  0.00  0.00    +0.000 A 
ATOM      9  N4  UNL     1     131.715 119.290 132.127  0.00  0.00    +0.000 NA
ATOM     10  C17 UNL     1     131.081 118.071 132.100  0.00  0.00    +0.000 A 
ATOM     11  N5  UNL     1     130.123 117.818 133.086  0.00  0.00    +0.000 N 
ATOM     12  H22 UNL     1     129.785 116.946 133.392  0.00  0.00    +0.000 HD
ENDROOT
BRANCH   6  13
ATOM     13  N1  UNL     1     129.886 115.461 131.759  0.00  0.00    +0.000 N 
ATOM     14  C7  UNL     1     129.980 114.160 132.395  0.00  0.00    +0.000 C 
ATOM     15  C8  UNL     1     128.699 113.955 133.177  0.00  0.00    +0.000 C 
ATOM     16  C9  UNL     1     127.566 113.899 132.157  0.00  0.00    +0.000 C 
ATOM     17  C10 UNL     1     127.494 115.170 131.352  0.00  0.00    +0.000 C 
ATOM     18  C11 UNL     1     128.614 116.140 131.778  0.00  0.00    +0.000 C 
ATOM     19  C12 UNL     1     127.447 112.611 131.424  0.00  0.00    +0.000 C 
ATOM     20  C13 UNL     1     126.406 113.040 132.393  0.00  0.00    +0.000 C 
ENDBRANCH   6  13
BRANCH  11  21
ATOM     21  C18 UNL     1     129.589 118.931 133.822  0.00  0.00    +0.000 A 
ATOM     22  C19 UNL     1     129.311 120.153 133.262  0.00  0.00    +0.000 A 
ATOM     23  C20 UNL     1     128.805 121.201 134.032  0.00  0.00    +0.000 A 
ATOM     24  C21 UNL     1     128.569 121.037 135.375  0.00  0.00    +0.000 A 
ATOM     25  C22 UNL     1     128.842 119.809 135.960  0.00  0.00    +0.000 A 
ATOM     26  C23 UNL     1     129.340 118.798 135.180  0.00  0.00    +0.000 A 
ATOM     27  C24 UNL     1     128.587 119.617 137.430  0.00  0.00    +0.000 C 
ENDBRANCH  11  21
BRANCH   4  28
ATOM     28  N2  UNL     1     133.107 114.606 128.275  0.00  0.00    +0.000 N 
ATOM     29  H15 UNL     1     132.808 114.724 127.284  0.00  0.00    +0.000 HD
BRANCH  28  30
ATOM     30  S1  UNL     1     134.201 113.358 128.675  0.00  0.00    +0.000 S 
ATOM     31  O2  UNL     1     133.574 112.266 129.502  0.00  0.00    +0.000 OA
ATOM     32  O3  UNL     1     134.758 112.738 127.427  0.00  0.00    +0.000 OA
BRANCH  30  33
ATOM     33  C14 UNL     1     135.578 113.983 129.634  0.00  0.00    +0.000 C 
BRANCH  33  34
ATOM     34  C15 UNL     1     136.178 112.830 130.444  0.00  0.00    +0.000 C 
BRANCH  34  35
ATOM     35  O1  UNL     1     136.469 111.770 129.593  0.00  0.00    +0.000 OA
ATOM     36  H20 UNL     1     135.786 111.762 128.882  0.00  0.00    +0.000 HD
ENDBRANCH  34  35
ENDBRANCH  33  34
ENDBRANCH  30  33
ENDBRANCH  28  30
ENDBRANCH   4  28
TORSDOF 7
ENDMDL
MODEL 5
REMARK VINA RESULT:     -10.7      0.897      1.249
REMARK  Name = aganitha_data/bbio_mols_pdbqt/BB_39.pdb
REMARK  8 active torsions:
REMARK  status: ('A' for Active; 'I' for Inactive)
REMARK    1  A    between atoms: C4_4  and  N2_15
REMARK    2  A    between atoms: C6_6  and  N1_7
REMARK    3  A    between atoms: N2_15  and  S1_16
REMARK    4  A    between atoms: S1_16  and  C14_17
REMARK    5  A    between atoms: C14_17  and  C15_18
REMARK    6  A    between atoms: C15_18  and  O1_19
REMARK    7  A    between atoms: N5_26  and  C18_27
REMARK    8  A    between atoms: C22_31  and  C24_33
REMARK                            x       y       z     vdW  Elec       q    Type
REMARK                         _______ _______ _______ _____ _____    ______ ____
ROOT
ATOM      1  C1  UNL     1     131.359 117.306 131.012  0.00  0.00    +0.000 A 
ATOM      2  C2  UNL     1     131.819 118.628 131.121  0.00  0.00    +0.000 A 
ATOM      3  C3  UNL     1     131.102 119.534 131.866  0.00  0.00    +0.000 A 
ATOM      4  C4  UNL     1     129.962 119.140 132.488  0.00  0.00    +0.000 A 
ATOM      5  C5  UNL     1     129.529 117.847 132.374  0.00  0.00    +0.000 A 
ATOM      6  C6  UNL     1     130.239 116.879 131.614  0.00  0.00    +0.000 A 
ATOM      7  N3  UNL     1     132.963 119.055 130.562  0.00  0.00    +0.000 NA
ATOM      8  C16 UNL     1     133.718 118.200 129.867  0.00  0.00    +0.000 A 
ATOM      9  N4  UNL     1     133.294 116.956 129.756  0.00  0.00    +0.000 NA
ATOM     10  C17 UNL     1     132.141 116.432 130.288  0.00  0.00    +0.000 A 
ATOM     11  N5  UNL     1     131.795 115.127 129.925  0.00  0.00    +0.000 N 
ATOM     12  H22 UNL     1     130.910 114.700 129.969  0.00  0.00    +0.000 HD
ENDROOT
BRANCH   6  13
ATOM     13  N1  UNL     1     129.707 115.584 131.597  0.00  0.00    +0.000 N 
ATOM     14  C7  UNL     1     128.670 115.252 130.636  0.00  0.00    +0.000 C 
ATOM     15  C8  UNL     1     128.390 113.771 130.779  0.00  0.00    +0.000 C 
ATOM     16  C9  UNL     1     127.817 113.566 132.179  0.00  0.00    +0.000 C 
ATOM     17  C10 UNL     1     128.786 114.024 133.237  0.00  0.00    +0.000 C 
ATOM     18  C11 UNL     1     130.061 114.598 132.587  0.00  0.00    +0.000 C 
ATOM     19  C12 UNL     1     126.391 113.956 132.333  0.00  0.00    +0.000 C 
ATOM     20  C13 UNL     1     126.809 112.534 132.416  0.00  0.00    +0.000 C 
ENDBRANCH   6  13
BRANCH  11  21
ATOM     21  C18 UNL     1     132.808 114.289 129.341  0.00  0.00    +0.000 A 
ATOM     22  C19 UNL     1     132.691 113.699 128.108  0.00  0.00    +0.000 A 
ATOM     23  C20 UNL     1     133.704 112.884 127.599  0.00  0.00    +0.000 A 
ATOM     24  C21 UNL     1     134.849 112.653 128.321  0.00  0.00    +0.000 A 
ATOM     25  C22 UNL     1     134.987 113.242 129.569  0.00  0.00    +0.000 A 
ATOM     26  C23 UNL     1     133.976 114.036 130.045  0.00  0.00    +0.000 A 
ATOM     27  C24 UNL     1     136.237 112.996 130.370  0.00  0.00    +0.000 C 
ENDBRANCH  11  21
BRANCH   4  28
ATOM     28  N2  UNL     1     129.214 120.082 133.265  0.00  0.00    +0.000 N 
ATOM     29  H15 UNL     1     128.624 120.788 132.775  0.00  0.00    +0.000 HD
BRANCH  28  30
ATOM     30  S1  UNL     1     129.268 120.074 134.971  0.00  0.00    +0.000 S 
ATOM     31  O2  UNL     1     128.301 121.046 135.596  0.00  0.00    +0.000 OA
ATOM     32  O3  UNL     1     128.954 118.702 135.492  0.00  0.00    +0.000 OA
BRANCH  30  33
ATOM     33  C14 UNL     1     130.892 120.529 135.572  0.00  0.00    +0.000 C 
BRANCH  33  34
ATOM     34  C15 UNL     1     131.377 121.758 134.800  0.00  0.00    +0.000 C 
BRANCH  34  35
ATOM     35  O1  UNL     1     132.459 122.323 135.464  0.00  0.00    +0.000 OA
ATOM     36  H20 UNL     1     133.281 122.011 135.015  0.00  0.00    +0.000 HD
ENDBRANCH  34  35
ENDBRANCH  33  34
ENDBRANCH  30  33
ENDBRANCH  28  30
ENDBRANCH   4  28
TORSDOF 7
ENDMDL
MODEL 6
REMARK VINA RESULT:     -10.6      0.611      1.291
REMARK  Name = aganitha_data/bbio_mols_pdbqt/BB_39.pdb
REMARK  8 active torsions:
REMARK  status: ('A' for Active; 'I' for Inactive)
REMARK    1  A    between atoms: C4_4  and  N2_15
REMARK    2  A    between atoms: C6_6  and  N1_7
REMARK    3  A    between atoms: N2_15  and  S1_16
REMARK    4  A    between atoms: S1_16  and  C14_17
REMARK    5  A    between atoms: C14_17  and  C15_18
REMARK    6  A    between atoms: C15_18  and  O1_19
REMARK    7  A    between atoms: N5_26  and  C18_27
REMARK    8  A    between atoms: C22_31  and  C24_33
REMARK                            x       y       z     vdW  Elec       q    Type
REMARK                         _______ _______ _______ _____ _____    ______ ____
ROOT
ATOM      1  C1  UNL     1     131.298 117.492 131.337  0.00  0.00    +0.000 A 
ATOM      2  C2  UNL     1     131.825 118.786 131.469  0.00  0.00    +0.000 A 
ATOM      3  C3  UNL     1     131.211 119.684 132.308  0.00  0.00    +0.000 A 
ATOM      4  C4  UNL     1     130.106 119.309 133.000  0.00  0.00    +0.000 A 
ATOM      5  C5  UNL     1     129.605 118.043 132.863  0.00  0.00    +0.000 A 
ATOM      6  C6  UNL     1     130.209 117.084 132.006  0.00  0.00    +0.000 A 
ATOM      7  N3  UNL     1     132.942 119.190 130.841  0.00  0.00    +0.000 NA
ATOM      8  C16 UNL     1     133.600 118.339 130.050  0.00  0.00    +0.000 A 
ATOM      9  N4  UNL     1     133.112 117.122 129.917  0.00  0.00    +0.000 NA
ATOM     10  C17 UNL     1     131.979 116.622 130.514  0.00  0.00    +0.000 A 
ATOM     11  N5  UNL     1     131.547 115.352 130.120  0.00  0.00    +0.000 N 
ATOM     12  H22 UNL     1     130.648 114.962 130.215  0.00  0.00    +0.000 HD
ENDROOT
BRANCH   6  13
ATOM     13  N1  UNL     1     129.617 115.816 131.972  0.00  0.00    +0.000 N 
ATOM     14  C7  UNL     1     128.638 115.513 130.943  0.00  0.00    +0.000 C 
ATOM     15  C8  UNL     1     128.277 114.050 131.091  0.00  0.00    +0.000 C 
ATOM     16  C9  UNL     1     127.594 113.901 132.448  0.00  0.00    +0.000 C 
ATOM     17  C10 UNL     1     128.505 114.335 133.567  0.00  0.00    +0.000 C 
ATOM     18  C11 UNL     1     129.850 114.835 133.002  0.00  0.00    +0.000 C 
ATOM     19  C12 UNL     1     126.182 114.362 132.491  0.00  0.00    +0.000 C 
ATOM     20  C13 UNL     1     126.523 112.923 132.629  0.00  0.00    +0.000 C 
ENDBRANCH   6  13
BRANCH  11  21
ATOM     21  C18 UNL     1     132.471 114.501 129.421  0.00  0.00    +0.000 A 
ATOM     22  C19 UNL     1     133.833 114.561 129.581  0.00  0.00    +0.000 A 
ATOM     23  C20 UNL     1     134.681 113.716 128.863  0.00  0.00    +0.000 A 
ATOM     24  C21 UNL     1     134.173 112.799 127.976  0.00  0.00    +0.000 A 
ATOM     25  C22 UNL     1     132.800 112.722 127.801  0.00  0.00    +0.000 A 
ATOM     26  C23 UNL     1     131.990 113.565 128.518  0.00  0.00    +0.000 A 
ATOM     27  C24 UNL     1     132.232 111.721 126.832  0.00  0.00    +0.000 C 
ENDBRANCH  11  21
BRANCH   4  28
ATOM     28  N2  UNL     1     129.464 120.243 133.876  0.00  0.00    +0.000 N 
ATOM     29  H15 UNL     1     128.774 120.917 133.482  0.00  0.00    +0.000 HD
BRANCH  28  30
ATOM     30  S1  UNL     1     129.805 120.278 135.548  0.00  0.00    +0.000 S 
ATOM     31  O2  UNL     1     131.043 121.070 135.882  0.00  0.00    +0.000 OA
ATOM     32  O3  UNL     1     128.651 120.877 136.299  0.00  0.00    +0.000 OA
BRANCH  30  33
ATOM     33  C14 UNL     1     130.078 118.630 136.191  0.00  0.00    +0.000 C 
BRANCH  33  34
ATOM     34  C15 UNL     1     129.929 118.664 137.715  0.00  0.00    +0.000 C 
BRANCH  34  35
ATOM     35  O1  UNL     1     130.735 119.670 138.235  0.00  0.00    +0.000 OA
ATOM     36  H20 UNL     1     130.189 120.191 138.870  0.00  0.00    +0.000 HD
ENDBRANCH  34  35
ENDBRANCH  33  34
ENDBRANCH  30  33
ENDBRANCH  28  30
ENDBRANCH   4  28
TORSDOF 7
ENDMDL
MODEL 7
REMARK VINA RESULT:     -10.6      3.738      7.346
REMARK  Name = aganitha_data/bbio_mols_pdbqt/BB_39.pdb
REMARK  8 active torsions:
REMARK  status: ('A' for Active; 'I' for Inactive)
REMARK    1  A    between atoms: C4_4  and  N2_15
REMARK    2  A    between atoms: C6_6  and  N1_7
REMARK    3  A    between atoms: N2_15  and  S1_16
REMARK    4  A    between atoms: S1_16  and  C14_17
REMARK    5  A    between atoms: C14_17  and  C15_18
REMARK    6  A    between atoms: C15_18  and  O1_19
REMARK    7  A    between atoms: N5_26  and  C18_27
REMARK    8  A    between atoms: C22_31  and  C24_33
REMARK                            x       y       z     vdW  Elec       q    Type
REMARK                         _______ _______ _______ _____ _____    ______ ____
ROOT
ATOM      1  C1  UNL     1     130.091 118.287 134.151  0.00  0.00    +0.000 A 
ATOM      2  C2  UNL     1     130.816 119.490 134.159  0.00  0.00    +0.000 A 
ATOM      3  C3  UNL     1     131.411 119.929 133.001  0.00  0.00    +0.000 A 
ATOM      4  C4  UNL     1     131.292 119.196 131.865  0.00  0.00    +0.000 A 
ATOM      5  C5  UNL     1     130.581 118.027 131.873  0.00  0.00    +0.000 A 
ATOM      6  C6  UNL     1     129.949 117.538 133.048  0.00  0.00    +0.000 A 
ATOM      7  N3  UNL     1     130.925 120.273 135.245  0.00  0.00    +0.000 NA
ATOM      8  C16 UNL     1     130.325 119.912 136.383  0.00  0.00    +0.000 A 
ATOM      9  N4  UNL     1     129.644 118.783 136.386  0.00  0.00    +0.000 NA
ATOM     10  C17 UNL     1     129.480 117.920 135.330  0.00  0.00    +0.000 A 
ATOM     11  N5  UNL     1     128.851 116.697 135.584  0.00  0.00    +0.000 N 
ATOM     12  H22 UNL     1     128.895 115.871 135.051  0.00  0.00    +0.000 HD
ENDROOT
BRANCH   6  13
ATOM     13  N1  UNL     1     129.230 116.343 132.920  0.00  0.00    +0.000 N 
ATOM     14  C7  UNL     1     129.949 115.090 132.786  0.00  0.00    +0.000 C 
ATOM     15  C8  UNL     1     128.916 113.983 132.791  0.00  0.00    +0.000 C 
ATOM     16  C9  UNL     1     128.063 114.172 131.539  0.00  0.00    +0.000 C 
ATOM     17  C10 UNL     1     127.392 115.520 131.536  0.00  0.00    +0.000 C 
ATOM     18  C11 UNL     1     127.795 116.325 132.788  0.00  0.00    +0.000 C 
ATOM     19  C12 UNL     1     128.699 113.715 130.275  0.00  0.00    +0.000 C 
ATOM     20  C13 UNL     1     127.519 113.010 130.838  0.00  0.00    +0.000 C 
ENDBRANCH   6  13
BRANCH  11  21
ATOM     21  C18 UNL     1     128.095 116.558 136.799  0.00  0.00    +0.000 A 
ATOM     22  C19 UNL     1     127.000 115.740 136.925  0.00  0.00    +0.000 A 
ATOM     23  C20 UNL     1     126.297 115.656 138.129  0.00  0.00    +0.000 A 
ATOM     24  C21 UNL     1     126.686 116.391 139.222  0.00  0.00    +0.000 A 
ATOM     25  C22 UNL     1     127.791 117.222 139.115  0.00  0.00    +0.000 A 
ATOM     26  C23 UNL     1     128.461 117.286 137.921  0.00  0.00    +0.000 A 
ATOM     27  C24 UNL     1     128.226 118.031 140.307  0.00  0.00    +0.000 C 
ENDBRANCH  11  21
BRANCH   4  28
ATOM     28  N2  UNL     1     131.912 119.651 130.657  0.00  0.00    +0.000 N 
ATOM     29  H15 UNL     1     131.735 120.625 130.331  0.00  0.00    +0.000 HD
BRANCH  28  30
ATOM     30  S1  UNL     1     132.932 118.635 129.740  0.00  0.00    +0.000 S 
ATOM     31  O2  UNL     1     133.037 117.241 130.303  0.00  0.00    +0.000 OA
ATOM     32  O3  UNL     1     132.429 118.533 128.330  0.00  0.00    +0.000 OA
BRANCH  30  33
ATOM     33  C14 UNL     1     134.603 119.275 129.678  0.00  0.00    +0.000 C 
BRANCH  33  34
ATOM     34  C15 UNL     1     135.572 118.105 129.487  0.00  0.00    +0.000 C 
BRANCH  34  35
ATOM     35  O1  UNL     1     135.065 117.237 128.528  0.00  0.00    +0.000 OA
ATOM     36  H20 UNL     1     134.686 116.459 129.001  0.00  0.00    +0.000 HD
ENDBRANCH  34  35
ENDBRANCH  33  34
ENDBRANCH  30  33
ENDBRANCH  28  30
ENDBRANCH   4  28
TORSDOF 7
ENDMDL
MODEL 8
REMARK VINA RESULT:     -10.5      3.335      7.268
REMARK  Name = aganitha_data/bbio_mols_pdbqt/BB_39.pdb
REMARK  8 active torsions:
REMARK  status: ('A' for Active; 'I' for Inactive)
REMARK    1  A    between atoms: C4_4  and  N2_15
REMARK    2  A    between atoms: C6_6  and  N1_7
REMARK    3  A    between atoms: N2_15  and  S1_16
REMARK    4  A    between atoms: S1_16  and  C14_17
REMARK    5  A    between atoms: C14_17  and  C15_18
REMARK    6  A    between atoms: C15_18  and  O1_19
REMARK    7  A    between atoms: N5_26  and  C18_27
REMARK    8  A    between atoms: C22_31  and  C24_33
REMARK                            x       y       z     vdW  Elec       q    Type
REMARK                         _______ _______ _______ _____ _____    ______ ____
ROOT
ATOM      1  C1  UNL     1     130.133 118.533 134.194  0.00  0.00    +0.000 A 
ATOM      2  C2  UNL     1     130.811 119.759 134.271  0.00  0.00    +0.000 A 
ATOM      3  C3  UNL     1     131.409 120.273 133.145  0.00  0.00    +0.000 A 
ATOM      4  C4  UNL     1     131.336 119.590 131.975  0.00  0.00    +0.000 A 
ATOM      5  C5  UNL     1     130.669 118.397 131.916  0.00  0.00    +0.000 A 
ATOM      6  C6  UNL     1     130.037 117.831 133.055  0.00  0.00    +0.000 A 
ATOM      7  N3  UNL     1     130.873 120.494 135.393  0.00  0.00    +0.000 NA
ATOM      8  C16 UNL     1     130.269 120.059 136.502  0.00  0.00    +0.000 A 
ATOM      9  N4  UNL     1     129.631 118.907 136.442  0.00  0.00    +0.000 NA
ATOM     10  C17 UNL     1     129.517 118.088 135.344  0.00  0.00    +0.000 A 
ATOM     11  N5  UNL     1     128.930 116.833 135.530  0.00  0.00    +0.000 N 
ATOM     12  H22 UNL     1     129.013 116.035 134.960  0.00  0.00    +0.000 HD
ENDROOT
BRANCH   6  13
ATOM     13  N1  UNL     1     129.365 116.618 132.859  0.00  0.00    +0.000 N 
ATOM     14  C7  UNL     1     130.129 115.387 132.765  0.00  0.00    +0.000 C 
ATOM     15  C8  UNL     1     129.131 114.251 132.679  0.00  0.00    +0.000 C 
ATOM     16  C9  UNL     1     128.370 114.433 131.369  0.00  0.00    +0.000 C 
ATOM     17  C10 UNL     1     127.661 115.762 131.331  0.00  0.00    +0.000 C 
ATOM     18  C11 UNL     1     127.945 116.560 132.619  0.00  0.00    +0.000 C 
ATOM     19  C12 UNL     1     129.112 114.012 130.152  0.00  0.00    +0.000 C 
ATOM     20  C13 UNL     1     127.914 113.267 130.616  0.00  0.00    +0.000 C 
ENDBRANCH   6  13
BRANCH  11  21
ATOM     21  C18 UNL     1     128.159 116.609 136.723  0.00  0.00    +0.000 A 
ATOM     22  C19 UNL     1     127.104 115.735 136.796  0.00  0.00    +0.000 A 
ATOM     23  C20 UNL     1     126.384 115.570 137.981  0.00  0.00    +0.000 A 
ATOM     24  C21 UNL     1     126.716 116.280 139.109  0.00  0.00    +0.000 A 
ATOM     25  C22 UNL     1     127.781 117.167 139.056  0.00  0.00    +0.000 A 
ATOM     26  C23 UNL     1     128.468 117.311 137.879  0.00  0.00    +0.000 A 
ATOM     27  C24 UNL     1     128.153 117.951 140.286  0.00  0.00    +0.000 C 
ENDBRANCH  11  21
BRANCH   4  28
ATOM     28  N2  UNL     1     131.958 120.123 130.800  0.00  0.00    +0.000 N 
ATOM     29  H15 UNL     1     131.657 121.056 130.445  0.00  0.00    +0.000 HD
BRANCH  28  30
ATOM     30  S1  UNL     1     133.179 119.266 129.970  0.00  0.00    +0.000 S 
ATOM     31  O2  UNL     1     133.559 119.902 128.658  0.00  0.00    +0.000 OA
ATOM     32  O3  UNL     1     134.414 119.173 130.819  0.00  0.00    +0.000 OA
BRANCH  30  33
ATOM     33  C14 UNL     1     132.655 117.598 129.584  0.00  0.00    +0.000 C 
BRANCH  33  34
ATOM     34  C15 UNL     1     133.897 116.718 129.417  0.00  0.00    +0.000 C 
BRANCH  34  35
ATOM     35  O1  UNL     1     134.836 117.387 128.641  0.00  0.00    +0.000 OA
ATOM     36  H20 UNL     1     135.496 116.722 128.332  0.00  0.00    +0.000 HD
ENDBRANCH  34  35
ENDBRANCH  33  34
ENDBRANCH  30  33
ENDBRANCH  28  30
ENDBRANCH   4  28
TORSDOF 7
ENDMDL
MODEL 9
REMARK VINA RESULT:     -10.5      2.569      4.281
REMARK  Name = aganitha_data/bbio_mols_pdbqt/BB_39.pdb
REMARK  8 active torsions:
REMARK  status: ('A' for Active; 'I' for Inactive)
REMARK    1  A    between atoms: C4_4  and  N2_15
REMARK    2  A    between atoms: C6_6  and  N1_7
REMARK    3  A    between atoms: N2_15  and  S1_16
REMARK    4  A    between atoms: S1_16  and  C14_17
REMARK    5  A    between atoms: C14_17  and  C15_18
REMARK    6  A    between atoms: C15_18  and  O1_19
REMARK    7  A    between atoms: N5_26  and  C18_27
REMARK    8  A    between atoms: C22_31  and  C24_33
REMARK                            x       y       z     vdW  Elec       q    Type
REMARK                         _______ _______ _______ _____ _____    ______ ____
ROOT
ATOM      1  C1  UNL     1     129.485 118.659 134.089  0.00  0.00    +0.000 A 
ATOM      2  C2  UNL     1     129.490 119.632 135.102  0.00  0.00    +0.000 A 
ATOM      3  C3  UNL     1     128.716 119.444 136.222  0.00  0.00    +0.000 A 
ATOM      4  C4  UNL     1     127.960 118.324 136.336  0.00  0.00    +0.000 A 
ATOM      5  C5  UNL     1     127.968 117.384 135.342  0.00  0.00    +0.000 A 
ATOM      6  C6  UNL     1     128.753 117.539 134.167  0.00  0.00    +0.000 A 
ATOM      7  N3  UNL     1     130.255 120.734 135.057  0.00  0.00    +0.000 NA
ATOM      8  C16 UNL     1     131.059 120.938 134.009  0.00  0.00    +0.000 A 
ATOM      9  N4  UNL     1     131.060 120.033 133.051  0.00  0.00    +0.000 NA
ATOM     10  C17 UNL     1     130.313 118.880 133.009  0.00  0.00    +0.000 A 
ATOM     11  N5  UNL     1     130.344 118.130 131.830  0.00  0.00    +0.000 N 
ATOM     12  H22 UNL     1     129.691 117.464 131.518  0.00  0.00    +0.000 HD
ENDROOT
BRANCH   6  13
ATOM     13  N1  UNL     1     128.695 116.495 133.235  0.00  0.00    +0.000 N 
ATOM     14  C7  UNL     1     127.617 116.468 132.263  0.00  0.00    +0.000 C 
ATOM     15  C8  UNL     1     127.891 115.307 131.329  0.00  0.00    +0.000 C 
ATOM     16  C9  UNL     1     127.799 114.036 132.170  0.00  0.00    +0.000 C 
ATOM     17  C10 UNL     1     128.798 114.055 133.297  0.00  0.00    +0.000 C 
ATOM     18  C11 UNL     1     129.598 115.373 133.285  0.00  0.00    +0.000 C 
ATOM     19  C12 UNL     1     126.415 113.594 132.483  0.00  0.00    +0.000 C 
ATOM     20  C13 UNL     1     127.287 112.800 131.580  0.00  0.00    +0.000 C 
ENDBRANCH   6  13
BRANCH  11  21
ATOM     21  C18 UNL     1     131.405 118.378 130.891  0.00  0.00    +0.000 A 
ATOM     22  C19 UNL     1     131.709 119.622 130.396  0.00  0.00    +0.000 A 
ATOM     23  C20 UNL     1     132.744 119.798 129.475  0.00  0.00    +0.000 A 
ATOM     24  C21 UNL     1     133.487 118.728 129.040  0.00  0.00    +0.000 A 
ATOM     25  C22 UNL     1     133.195 117.463 129.529  0.00  0.00    +0.000 A 
ATOM     26  C23 UNL     1     132.173 117.319 130.431  0.00  0.00    +0.000 A 
ATOM     27  C24 UNL     1     134.002 116.284 129.058  0.00  0.00    +0.000 C 
ENDBRANCH  11  21
BRANCH   4  28
ATOM     28  N2  UNL     1     127.152 118.126 137.503  0.00  0.00    +0.000 N 
ATOM     29  H15 UNL     1     126.199 118.544 137.536  0.00  0.00    +0.000 HD
BRANCH  28  30
ATOM     30  S1  UNL     1     127.717 117.224 138.837  0.00  0.00    +0.000 S 
ATOM     31  O2  UNL     1     128.032 118.078 140.037  0.00  0.00    +0.000 OA
ATOM     32  O3  UNL     1     126.692 116.205 139.244  0.00  0.00    +0.000 OA
BRANCH  30  33
ATOM     33  C14 UNL     1     129.227 116.348 138.438  0.00  0.00    +0.000 C 
BRANCH  33  34
ATOM     34  C15 UNL     1     130.294 117.366 138.030  0.00  0.00    +0.000 C 
BRANCH  34  35
ATOM     35  O1  UNL     1     130.299 118.419 138.936  0.00  0.00    +0.000 OA
ATOM     36  H20 UNL     1     131.156 118.389 139.424  0.00  0.00    +0.000 HD
ENDBRANCH  34  35
ENDBRANCH  33  34
ENDBRANCH  30  33
ENDBRANCH  28  30
ENDBRANCH   4  28
TORSDOF 7
ENDMDL
