MODEL 1
REMARK VINA RESULT:     -11.8      0.000      0.000
REMARK  Name = aganitha_data/bbio_mols_pdbqt/BB_42.pdb
REMARK  8 active torsions:
REMARK  status: ('A' for Active; 'I' for Inactive)
REMARK    1  A    between atoms: C1_1  and  C16_22
REMARK    2  A    between atoms: C4_4  and  N2_15
REMARK    3  A    between atoms: C6_6  and  N1_7
REMARK    4  A    between atoms: N2_15  and  S1_16
REMARK    5  A    between atoms: S1_16  and  C14_17
REMARK    6  A    between atoms: C14_17  and  C15_18
REMARK    7  A    between atoms: C15_18  and  O1_19
REMARK    8  A    between atoms: C22_30  and  N4_31
REMARK                            x       y       z     vdW  Elec       q    Type
REMARK                         _______ _______ _______ _____ _____    ______ ____
ROOT
ATOM      1  C1  UNL     1     131.325 117.166 131.258  0.00  0.00    +0.000 A 
ATOM      2  C2  UNL     1     132.424 117.447 130.490  0.00  0.00    +0.000 A 
ATOM      3  C3  UNL     1     132.947 116.493 129.651  0.00  0.00    +0.000 A 
ATOM      4  C4  UNL     1     132.388 115.197 129.541  0.00  0.00    +0.000 A 
ATOM      5  C5  UNL     1     131.295 114.944 130.314  0.00  0.00    +0.000 A 
ATOM      6  C6  UNL     1     130.777 115.940 131.168  0.00  0.00    +0.000 A 
ENDROOT
BRANCH   1   7
ATOM      7  C16 UNL     1     130.720 118.136 132.203  0.00  0.00    +0.000 A 
ATOM      8  S2  UNL     1     130.162 117.485 133.836  0.00  0.00    +0.000 S 
ATOM      9  C17 UNL     1     129.564 119.099 134.403  0.00  0.00    +0.000 A 
ATOM     10  C18 UNL     1     129.859 119.881 133.317  0.00  0.00    +0.000 A 
ATOM     11  N3  UNL     1     130.423 119.279 132.311  0.00  0.00    +0.000 NA
ATOM     12  C19 UNL     1     129.500 121.226 133.459  0.00  0.00    +0.000 A 
ATOM     13  C20 UNL     1     128.905 121.690 134.601  0.00  0.00    +0.000 A 
ATOM     14  C21 UNL     1     128.621 120.889 135.671  0.00  0.00    +0.000 A 
ATOM     15  C22 UNL     1     128.957 119.544 135.582  0.00  0.00    +0.000 A 
BRANCH  15  16
ATOM     16  N4  UNL     1     128.722 118.612 136.631  0.00  0.00    +0.000 N 
ATOM     17  C23 UNL     1     129.823 118.300 137.518  0.00  0.00    +0.000 C 
ATOM     18  C24 UNL     1     130.067 116.810 137.439  0.00  0.00    +0.000 C 
ATOM     19  C25 UNL     1     128.809 116.068 137.771  0.00  0.00    +0.000 C 
ATOM     20  C26 UNL     1     127.605 116.948 137.941  0.00  0.00    +0.000 C 
ATOM     21  C27 UNL     1     127.458 117.968 136.856  0.00  0.00    +0.000 C 
ATOM     22  F1  UNL     1     129.020 115.388 138.956  0.00  0.00    +0.000 F 
ATOM     23  F2  UNL     1     128.533 115.094 136.815  0.00  0.00    +0.000 F 
ENDBRANCH  15  16
ENDBRANCH   1   7
BRANCH   6  24
ATOM     24  N1  UNL     1     129.631 115.591 131.905  0.00  0.00    +0.000 N 
ATOM     25  C7  UNL     1     128.383 116.286 131.729  0.00  0.00    +0.000 C 
ATOM     26  C8  UNL     1     127.388 115.323 131.050  0.00  0.00    +0.000 C 
ATOM     27  C9  UNL     1     127.440 114.017 131.772  0.00  0.00    +0.000 C 
ATOM     28  C10 UNL     1     128.184 114.075 133.069  0.00  0.00    +0.000 C 
ATOM     29  C11 UNL     1     129.643 114.513 132.865  0.00  0.00    +0.000 C 
ATOM     30  C12 UNL     1     127.414 112.719 131.053  0.00  0.00    +0.000 C 
ATOM     31  C13 UNL     1     126.164 113.221 131.690  0.00  0.00    +0.000 C 
ENDBRANCH   6  24
BRANCH   4  32
ATOM     32  N2  UNL     1     133.013 114.280 128.656  0.00  0.00    +0.000 N 
ATOM     33  H16 UNL     1     132.577 114.211 127.686  0.00  0.00    +0.000 HD
BRANCH  32  34
ATOM     34  S1  UNL     1     134.355 113.349 129.070  0.00  0.00    +0.000 S 
ATOM     35  O2  UNL     1     134.917 112.780 127.757  0.00  0.00    +0.000 OA
ATOM     36  O3  UNL     1     133.843 112.127 129.843  0.00  0.00    +0.000 OA
BRANCH  34  37
ATOM     37  C14 UNL     1     135.626 114.137 129.981  0.00  0.00    +0.000 C 
BRANCH  37  38
ATOM     38  C15 UNL     1     136.437 113.212 130.819  0.00  0.00    +0.000 C 
BRANCH  38  39
ATOM     39  O1  UNL     1     137.018 112.180 130.126  0.00  0.00    +0.000 OA
ATOM     40  H21 UNL     1     137.602 111.597 130.670  0.00  0.00    +0.000 HD
ENDBRANCH  38  39
ENDBRANCH  37  38
ENDBRANCH  34  37
ENDBRANCH  32  34
ENDBRANCH   4  32
TORSDOF 8
ENDMDL
MODEL 2
REMARK VINA RESULT:     -11.6      1.012      1.393
REMARK  Name = aganitha_data/bbio_mols_pdbqt/BB_42.pdb
REMARK  8 active torsions:
REMARK  status: ('A' for Active; 'I' for Inactive)
REMARK    1  A    between atoms: C1_1  and  C16_22
REMARK    2  A    between atoms: C4_4  and  N2_15
REMARK    3  A    between atoms: C6_6  and  N1_7
REMARK    4  A    between atoms: N2_15  and  S1_16
REMARK    5  A    between atoms: S1_16  and  C14_17
REMARK    6  A    between atoms: C14_17  and  C15_18
REMARK    7  A    between atoms: C15_18  and  O1_19
REMARK    8  A    between atoms: C22_30  and  N4_31
REMARK                            x       y       z     vdW  Elec       q    Type
REMARK                         _______ _______ _______ _____ _____    ______ ____
ROOT
ATOM      1  C1  UNL     1     131.530 117.418 131.133  0.00  0.00    +0.000 A 
ATOM      2  C2  UNL     1     132.584 117.852 130.372  0.00  0.00    +0.000 A 
ATOM      3  C3  UNL     1     133.180 117.006 129.468  0.00  0.00    +0.000 A 
ATOM      4  C4  UNL     1     132.744 115.672 129.281  0.00  0.00    +0.000 A 
ATOM      5  C5  UNL     1     131.694 115.268 130.048  0.00  0.00    +0.000 A 
ATOM      6  C6  UNL     1     131.099 116.154 130.970  0.00  0.00    +0.000 A 
ENDROOT
BRANCH   1   7
ATOM      7  C16 UNL     1     130.852 118.265 132.145  0.00  0.00    +0.000 A 
ATOM      8  S2  UNL     1     130.339 117.449 133.717  0.00  0.00    +0.000 S 
ATOM      9  C17 UNL     1     129.622 118.966 134.403  0.00  0.00    +0.000 A 
ATOM     10  C18 UNL     1     129.861 119.850 133.384  0.00  0.00    +0.000 A 
ATOM     11  N3  UNL     1     130.471 119.371 132.339  0.00  0.00    +0.000 NA
ATOM     12  C19 UNL     1     129.404 121.149 133.626  0.00  0.00    +0.000 A 
ATOM     13  C20 UNL     1     128.772 121.478 134.796  0.00  0.00    +0.000 A 
ATOM     14  C21 UNL     1     128.546 120.577 135.798  0.00  0.00    +0.000 A 
ATOM     15  C22 UNL     1     128.981 119.272 135.607  0.00  0.00    +0.000 A 
BRANCH  15  16
ATOM     16  N4  UNL     1     128.811 118.246 136.579  0.00  0.00    +0.000 N 
ATOM     17  C23 UNL     1     127.661 117.376 136.450  0.00  0.00    +0.000 C 
ATOM     18  C24 UNL     1     126.850 117.496 137.721  0.00  0.00    +0.000 C 
ATOM     19  C25 UNL     1     127.708 117.174 138.905  0.00  0.00    +0.000 C 
ATOM     20  C26 UNL     1     129.158 116.971 138.576  0.00  0.00    +0.000 C 
ATOM     21  C27 UNL     1     129.714 118.028 137.674  0.00  0.00    +0.000 C 
ATOM     22  F1  UNL     1     127.226 116.010 139.473  0.00  0.00    +0.000 F 
ATOM     23  F2  UNL     1     127.595 118.153 139.889  0.00  0.00    +0.000 F 
ENDBRANCH  15  16
ENDBRANCH   1   7
BRANCH   6  24
ATOM     24  N1  UNL     1     130.004 115.651 131.696  0.00  0.00    +0.000 N 
ATOM     25  C7  UNL     1     128.731 116.323 131.698  0.00  0.00    +0.000 C 
ATOM     26  C8  UNL     1     127.725 115.449 130.920  0.00  0.00    +0.000 C 
ATOM     27  C9  UNL     1     127.850 114.046 131.415  0.00  0.00    +0.000 C 
ATOM     28  C10 UNL     1     128.661 113.919 132.666  0.00  0.00    +0.000 C 
ATOM     29  C11 UNL     1     130.096 114.433 132.464  0.00  0.00    +0.000 C 
ATOM     30  C12 UNL     1     127.818 112.882 130.495  0.00  0.00    +0.000 C 
ATOM     31  C13 UNL     1     126.592 113.231 131.267  0.00  0.00    +0.000 C 
ENDBRANCH   6  24
BRANCH   4  32
ATOM     32  N2  UNL     1     133.438 114.877 128.331  0.00  0.00    +0.000 N 
ATOM     33  H16 UNL     1     133.789 115.396 127.469  0.00  0.00    +0.000 HD
BRANCH  32  34
ATOM     34  S1  UNL     1     133.711 113.225 128.518  0.00  0.00    +0.000 S 
ATOM     35  O2  UNL     1     134.635 112.799 127.366  0.00  0.00    +0.000 OA
ATOM     36  O3  UNL     1     132.383 112.508 128.245  0.00  0.00    +0.000 OA
BRANCH  34  37
ATOM     37  C14 UNL     1     134.369 112.689 130.050  0.00  0.00    +0.000 C 
BRANCH  37  38
ATOM     38  C15 UNL     1     135.794 113.060 130.263  0.00  0.00    +0.000 C 
BRANCH  38  39
ATOM     39  O1  UNL     1     136.214 114.145 129.537  0.00  0.00    +0.000 OA
ATOM     40  H21 UNL     1     135.807 115.004 129.808  0.00  0.00    +0.000 HD
ENDBRANCH  38  39
ENDBRANCH  37  38
ENDBRANCH  34  37
ENDBRANCH  32  34
ENDBRANCH   4  32
TORSDOF 8
ENDMDL
MODEL 3
REMARK VINA RESULT:     -11.4      0.989      1.142
REMARK  Name = aganitha_data/bbio_mols_pdbqt/BB_42.pdb
REMARK  8 active torsions:
REMARK  status: ('A' for Active; 'I' for Inactive)
REMARK    1  A    between atoms: C1_1  and  C16_22
REMARK    2  A    between atoms: C4_4  and  N2_15
REMARK    3  A    between atoms: C6_6  and  N1_7
REMARK    4  A    between atoms: N2_15  and  S1_16
REMARK    5  A    between atoms: S1_16  and  C14_17
REMARK    6  A    between atoms: C14_17  and  C15_18
REMARK    7  A    between atoms: C15_18  and  O1_19
REMARK    8  A    between atoms: C22_30  and  N4_31
REMARK                            x       y       z     vdW  Elec       q    Type
REMARK                         _______ _______ _______ _____ _____    ______ ____
ROOT
ATOM      1  C1  UNL     1     131.358 118.062 131.475  0.00  0.00    +0.000 A 
ATOM      2  C2  UNL     1     132.436 118.533 130.773  0.00  0.00    +0.000 A 
ATOM      3  C3  UNL     1     133.065 117.733 129.849  0.00  0.00    +0.000 A 
ATOM      4  C4  UNL     1     132.638 116.409 129.582  0.00  0.00    +0.000 A 
ATOM      5  C5  UNL     1     131.564 115.967 130.293  0.00  0.00    +0.000 A 
ATOM      6  C6  UNL     1     130.936 116.807 131.236  0.00  0.00    +0.000 A 
ENDROOT
BRANCH   1   7
ATOM      7  C16 UNL     1     130.644 118.857 132.504  0.00  0.00    +0.000 A 
ATOM      8  S2  UNL     1     130.162 117.987 134.057  0.00  0.00    +0.000 S 
ATOM      9  C17 UNL     1     129.383 119.457 134.774  0.00  0.00    +0.000 A 
ATOM     10  C18 UNL     1     129.588 120.373 133.775  0.00  0.00    +0.000 A 
ATOM     11  N3  UNL     1     130.219 119.942 132.721  0.00  0.00    +0.000 NA
ATOM     12  C19 UNL     1     129.077 121.647 134.045  0.00  0.00    +0.000 A 
ATOM     13  C20 UNL     1     128.431 121.923 135.220  0.00  0.00    +0.000 A 
ATOM     14  C21 UNL     1     128.240 120.991 136.202  0.00  0.00    +0.000 A 
ATOM     15  C22 UNL     1     128.728 119.710 135.983  0.00  0.00    +0.000 A 
BRANCH  15  16
ATOM     16  N4  UNL     1     128.599 118.656 136.931  0.00  0.00    +0.000 N 
ATOM     17  C23 UNL     1     129.733 118.374 137.786  0.00  0.00    +0.000 C 
ATOM     18  C24 UNL     1     130.133 116.934 137.557  0.00  0.00    +0.000 C 
ATOM     19  C25 UNL     1     128.963 116.034 137.808  0.00  0.00    +0.000 C 
ATOM     20  C26 UNL     1     127.674 116.759 138.061  0.00  0.00    +0.000 C 
ATOM     21  C27 UNL     1     127.412 117.862 137.085  0.00  0.00    +0.000 C 
ATOM     22  F1  UNL     1     129.252 115.263 138.918  0.00  0.00    +0.000 F 
ATOM     23  F2  UNL     1     128.784 115.138 136.757  0.00  0.00    +0.000 F 
ENDBRANCH  15  16
ENDBRANCH   1   7
BRANCH   6  24
ATOM     24  N1  UNL     1     129.819 116.268 131.899  0.00  0.00    +0.000 N 
ATOM     25  C7  UNL     1     128.500 116.815 131.717  0.00  0.00    +0.000 C 
ATOM     26  C8  UNL     1     127.658 115.787 130.934  0.00  0.00    +0.000 C 
ATOM     27  C9  UNL     1     127.849 114.450 131.570  0.00  0.00    +0.000 C 
ATOM     28  C10 UNL     1     128.535 114.507 132.899  0.00  0.00    +0.000 C 
ATOM     29  C11 UNL     1     129.934 115.135 132.786  0.00  0.00    +0.000 C 
ATOM     30  C12 UNL     1     128.011 113.212 130.766  0.00  0.00    +0.000 C 
ATOM     31  C13 UNL     1     126.687 113.510 131.381  0.00  0.00    +0.000 C 
ENDBRANCH   6  24
BRANCH   4  32
ATOM     32  N2  UNL     1     133.366 115.662 128.618  0.00  0.00    +0.000 N 
ATOM     33  H16 UNL     1     133.493 116.136 127.673  0.00  0.00    +0.000 HD
BRANCH  32  34
ATOM     34  S1  UNL     1     134.003 114.130 128.912  0.00  0.00    +0.000 S 
ATOM     35  O2  UNL     1     135.443 114.340 129.408  0.00  0.00    +0.000 OA
ATOM     36  O3  UNL     1     134.151 113.429 127.555  0.00  0.00    +0.000 OA
BRANCH  34  37
ATOM     37  C14 UNL     1     133.126 113.096 130.020  0.00  0.00    +0.000 C 
BRANCH  37  38
ATOM     38  C15 UNL     1     133.964 112.050 130.668  0.00  0.00    +0.000 C 
BRANCH  38  39
ATOM     39  O1  UNL     1     135.098 111.718 129.972  0.00  0.00    +0.000 OA
ATOM     40  H21 UNL     1     135.825 112.385 130.028  0.00  0.00    +0.000 HD
ENDBRANCH  38  39
ENDBRANCH  37  38
ENDBRANCH  34  37
ENDBRANCH  32  34
ENDBRANCH   4  32
TORSDOF 8
ENDMDL
MODEL 4
REMARK VINA RESULT:     -11.2      1.254      1.745
REMARK  Name = aganitha_data/bbio_mols_pdbqt/BB_42.pdb
REMARK  8 active torsions:
REMARK  status: ('A' for Active; 'I' for Inactive)
REMARK    1  A    between atoms: C1_1  and  C16_22
REMARK    2  A    between atoms: C4_4  and  N2_15
REMARK    3  A    between atoms: C6_6  and  N1_7
REMARK    4  A    between atoms: N2_15  and  S1_16
REMARK    5  A    between atoms: S1_16  and  C14_17
REMARK    6  A    between atoms: C14_17  and  C15_18
REMARK    7  A    between atoms: C15_18  and  O1_19
REMARK    8  A    between atoms: C22_30  and  N4_31
REMARK                            x       y       z     vdW  Elec       q    Type
REMARK                         _______ _______ _______ _____ _____    ______ ____
ROOT
ATOM      1  C1  UNL     1     131.446 117.903 131.421  0.00  0.00    +0.000 A 
ATOM      2  C2  UNL     1     132.534 118.343 130.714  0.00  0.00    +0.000 A 
ATOM      3  C3  UNL     1     133.167 117.509 129.825  0.00  0.00    +0.000 A 
ATOM      4  C4  UNL     1     132.737 116.179 129.599  0.00  0.00    +0.000 A 
ATOM      5  C5  UNL     1     131.653 115.767 130.314  0.00  0.00    +0.000 A 
ATOM      6  C6  UNL     1     131.020 116.642 131.221  0.00  0.00    +0.000 A 
ENDROOT
BRANCH   1   7
ATOM      7  C16 UNL     1     130.727 118.737 132.415  0.00  0.00    +0.000 A 
ATOM      8  S2  UNL     1     130.222 117.922 133.991  0.00  0.00    +0.000 S 
ATOM      9  C17 UNL     1     129.445 119.420 134.649  0.00  0.00    +0.000 A 
ATOM     10  C18 UNL     1     129.666 120.300 133.623  0.00  0.00    +0.000 A 
ATOM     11  N3  UNL     1     130.306 119.831 132.591  0.00  0.00    +0.000 NA
ATOM     12  C19 UNL     1     129.161 121.586 133.844  0.00  0.00    +0.000 A 
ATOM     13  C20 UNL     1     128.504 121.906 135.002  0.00  0.00    +0.000 A 
ATOM     14  C21 UNL     1     128.295 121.009 136.012  0.00  0.00    +0.000 A 
ATOM     15  C22 UNL     1     128.777 119.718 135.842  0.00  0.00    +0.000 A 
BRANCH  15  16
ATOM     16  N4  UNL     1     128.631 118.698 136.823  0.00  0.00    +0.000 N 
ATOM     17  C23 UNL     1     129.755 118.434 137.697  0.00  0.00    +0.000 C 
ATOM     18  C24 UNL     1     130.144 116.984 137.519  0.00  0.00    +0.000 C 
ATOM     19  C25 UNL     1     128.963 116.102 137.789  0.00  0.00    +0.000 C 
ATOM     20  C26 UNL     1     127.679 116.847 138.008  0.00  0.00    +0.000 C 
ATOM     21  C27 UNL     1     127.436 117.920 136.992  0.00  0.00    +0.000 C 
ATOM     22  F1  UNL     1     129.236 115.366 138.927  0.00  0.00    +0.000 F 
ATOM     23  F2  UNL     1     128.785 115.174 136.767  0.00  0.00    +0.000 F 
ENDBRANCH  15  16
ENDBRANCH   1   7
BRANCH   6  24
ATOM     24  N1  UNL     1     129.893 116.132 131.891  0.00  0.00    +0.000 N 
ATOM     25  C7  UNL     1     128.590 116.723 131.728  0.00  0.00    +0.000 C 
ATOM     26  C8  UNL     1     127.708 115.730 130.944  0.00  0.00    +0.000 C 
ATOM     27  C9  UNL     1     127.863 114.381 131.565  0.00  0.00    +0.000 C 
ATOM     28  C10 UNL     1     128.564 114.403 132.887  0.00  0.00    +0.000 C 
ATOM     29  C11 UNL     1     129.981 114.987 132.765  0.00  0.00    +0.000 C 
ATOM     30  C12 UNL     1     127.977 113.147 130.748  0.00  0.00    +0.000 C 
ATOM     31  C13 UNL     1     126.669 113.481 131.379  0.00  0.00    +0.000 C 
ENDBRANCH   6  24
BRANCH   4  32
ATOM     32  N2  UNL     1     133.469 115.396 128.670  0.00  0.00    +0.000 N 
ATOM     33  H16 UNL     1     134.023 115.946 127.944  0.00  0.00    +0.000 HD
BRANCH  32  34
ATOM     34  S1  UNL     1     133.491 113.711 128.681  0.00  0.00    +0.000 S 
ATOM     35  O2  UNL     1     134.267 113.290 129.939  0.00  0.00    +0.000 OA
ATOM     36  O3  UNL     1     134.366 113.257 127.506  0.00  0.00    +0.000 OA
BRANCH  34  37
ATOM     37  C14 UNL     1     131.946 112.889 128.621  0.00  0.00    +0.000 C 
BRANCH  37  38
ATOM     38  C15 UNL     1     131.521 112.491 127.251  0.00  0.00    +0.000 C 
BRANCH  38  39
ATOM     39  O1  UNL     1     132.173 111.392 126.751  0.00  0.00    +0.000 OA
ATOM     40  H21 UNL     1     132.778 111.582 125.994  0.00  0.00    +0.000 HD
ENDBRANCH  38  39
ENDBRANCH  37  38
ENDBRANCH  34  37
ENDBRANCH  32  34
ENDBRANCH   4  32
TORSDOF 8
ENDMDL
MODEL 5
REMARK VINA RESULT:     -10.7      1.293      1.536
REMARK  Name = aganitha_data/bbio_mols_pdbqt/BB_42.pdb
REMARK  8 active torsions:
REMARK  status: ('A' for Active; 'I' for Inactive)
REMARK    1  A    between atoms: C1_1  and  C16_22
REMARK    2  A    between atoms: C4_4  and  N2_15
REMARK    3  A    between atoms: C6_6  and  N1_7
REMARK    4  A    between atoms: N2_15  and  S1_16
REMARK    5  A    between atoms: S1_16  and  C14_17
REMARK    6  A    between atoms: C14_17  and  C15_18
REMARK    7  A    between atoms: C15_18  and  O1_19
REMARK    8  A    between atoms: C22_30  and  N4_31
REMARK                            x       y       z     vdW  Elec       q    Type
REMARK                         _______ _______ _______ _____ _____    ______ ____
ROOT
ATOM      1  C1  UNL     1     131.303 118.020 131.545  0.00  0.00    +0.000 A 
ATOM      2  C2  UNL     1     132.371 118.519 130.846  0.00  0.00    +0.000 A 
ATOM      3  C3  UNL     1     133.000 117.749 129.898  0.00  0.00    +0.000 A 
ATOM      4  C4  UNL     1     132.584 116.429 129.600  0.00  0.00    +0.000 A 
ATOM      5  C5  UNL     1     131.520 115.958 130.308  0.00  0.00    +0.000 A 
ATOM      6  C6  UNL     1     130.892 116.767 131.277  0.00  0.00    +0.000 A 
ENDROOT
BRANCH   1   7
ATOM      7  C16 UNL     1     130.590 118.782 132.599  0.00  0.00    +0.000 A 
ATOM      8  S2  UNL     1     130.078 117.854 134.109  0.00  0.00    +0.000 S 
ATOM      9  C17 UNL     1     129.313 119.304 134.880  0.00  0.00    +0.000 A 
ATOM     10  C18 UNL     1     129.542 120.258 133.923  0.00  0.00    +0.000 A 
ATOM     11  N3  UNL     1     130.178 119.863 132.858  0.00  0.00    +0.000 NA
ATOM     12  C19 UNL     1     129.048 121.527 134.242  0.00  0.00    +0.000 A 
ATOM     13  C20 UNL     1     128.392 121.764 135.421  0.00  0.00    +0.000 A 
ATOM     14  C21 UNL     1     128.177 120.794 136.359  0.00  0.00    +0.000 A 
ATOM     15  C22 UNL     1     128.648 119.515 136.091  0.00  0.00    +0.000 A 
BRANCH  15  16
ATOM     16  N4  UNL     1     128.493 118.425 136.993  0.00  0.00    +0.000 N 
ATOM     17  C23 UNL     1     128.484 117.086 136.439  0.00  0.00    +0.000 C 
ATOM     18  C24 UNL     1     127.170 116.443 136.819  0.00  0.00    +0.000 C 
ATOM     19  C25 UNL     1     126.999 116.471 138.307  0.00  0.00    +0.000 C 
ATOM     20  C26 UNL     1     128.060 117.246 139.031  0.00  0.00    +0.000 C 
ATOM     21  C27 UNL     1     128.347 118.579 138.413  0.00  0.00    +0.000 C 
ATOM     22  F1  UNL     1     127.031 115.166 138.761  0.00  0.00    +0.000 F 
ATOM     23  F2  UNL     1     125.747 116.968 138.660  0.00  0.00    +0.000 F 
ENDBRANCH  15  16
ENDBRANCH   1   7
BRANCH   6  24
ATOM     24  N1  UNL     1     129.785 116.201 131.936  0.00  0.00    +0.000 N 
ATOM     25  C7  UNL     1     128.461 116.749 131.789  0.00  0.00    +0.000 C 
ATOM     26  C8  UNL     1     127.613 115.745 130.981  0.00  0.00    +0.000 C 
ATOM     27  C9  UNL     1     127.818 114.387 131.567  0.00  0.00    +0.000 C 
ATOM     28  C10 UNL     1     128.520 114.401 132.888  0.00  0.00    +0.000 C 
ATOM     29  C11 UNL     1     129.915 115.038 132.780  0.00  0.00    +0.000 C 
ATOM     30  C12 UNL     1     127.974 113.179 130.719  0.00  0.00    +0.000 C 
ATOM     31  C13 UNL     1     126.657 113.450 131.360  0.00  0.00    +0.000 C 
ENDBRANCH   6  24
BRANCH   4  32
ATOM     32  N2  UNL     1     133.311 115.714 128.612  0.00  0.00    +0.000 N 
ATOM     33  H16 UNL     1     133.408 116.204 127.672  0.00  0.00    +0.000 HD
BRANCH  32  34
ATOM     34  S1  UNL     1     133.991 114.194 128.871  0.00  0.00    +0.000 S 
ATOM     35  O2  UNL     1     135.453 114.431 129.282  0.00  0.00    +0.000 OA
ATOM     36  O3  UNL     1     134.072 113.491 127.510  0.00  0.00    +0.000 OA
BRANCH  34  37
ATOM     37  C14 UNL     1     133.199 113.148 130.032  0.00  0.00    +0.000 C 
BRANCH  37  38
ATOM     38  C15 UNL     1     134.032 112.002 130.486  0.00  0.00    +0.000 C 
BRANCH  38  39
ATOM     39  O1  UNL     1     135.326 112.330 130.803  0.00  0.00    +0.000 OA
ATOM     40  H21 UNL     1     135.610 112.053 131.708  0.00  0.00    +0.000 HD
ENDBRANCH  38  39
ENDBRANCH  37  38
ENDBRANCH  34  37
ENDBRANCH  32  34
ENDBRANCH   4  32
TORSDOF 8
ENDMDL
MODEL 6
REMARK VINA RESULT:     -10.7      1.453      2.015
REMARK  Name = aganitha_data/bbio_mols_pdbqt/BB_42.pdb
REMARK  8 active torsions:
REMARK  status: ('A' for Active; 'I' for Inactive)
REMARK    1  A    between atoms: C1_1  and  C16_22
REMARK    2  A    between atoms: C4_4  and  N2_15
REMARK    3  A    between atoms: C6_6  and  N1_7
REMARK    4  A    between atoms: N2_15  and  S1_16
REMARK    5  A    between atoms: S1_16  and  C14_17
REMARK    6  A    between atoms: C14_17  and  C15_18
REMARK    7  A    between atoms: C15_18  and  O1_19
REMARK    8  A    between atoms: C22_30  and  N4_31
REMARK                            x       y       z     vdW  Elec       q    Type
REMARK                         _______ _______ _______ _____ _____    ______ ____
ROOT
ATOM      1  C1  UNL     1     131.415 117.824 131.459  0.00  0.00    +0.000 A 
ATOM      2  C2  UNL     1     132.493 118.291 130.754  0.00  0.00    +0.000 A 
ATOM      3  C3  UNL     1     133.135 117.478 129.850  0.00  0.00    +0.000 A 
ATOM      4  C4  UNL     1     132.722 116.146 129.607  0.00  0.00    +0.000 A 
ATOM      5  C5  UNL     1     131.648 115.708 130.319  0.00  0.00    +0.000 A 
ATOM      6  C6  UNL     1     131.006 116.560 131.242  0.00  0.00    +0.000 A 
ENDROOT
BRANCH   1   7
ATOM      7  C16 UNL     1     130.687 118.632 132.467  0.00  0.00    +0.000 A 
ATOM      8  S2  UNL     1     130.192 117.785 134.029  0.00  0.00    +0.000 S 
ATOM      9  C17 UNL     1     129.400 119.263 134.714  0.00  0.00    +0.000 A 
ATOM     10  C18 UNL     1     129.612 120.163 133.703  0.00  0.00    +0.000 A 
ATOM     11  N3  UNL     1     130.256 119.719 132.663  0.00  0.00    +0.000 NA
ATOM     12  C19 UNL     1     129.094 121.440 133.948  0.00  0.00    +0.000 A 
ATOM     13  C20 UNL     1     128.434 121.732 135.111  0.00  0.00    +0.000 A 
ATOM     14  C21 UNL     1     128.236 120.815 136.105  0.00  0.00    +0.000 A 
ATOM     15  C22 UNL     1     128.731 119.532 135.912  0.00  0.00    +0.000 A 
BRANCH  15  16
ATOM     16  N4  UNL     1     128.596 118.494 136.875  0.00  0.00    +0.000 N 
ATOM     17  C23 UNL     1     128.658 117.124 136.407  0.00  0.00    +0.000 C 
ATOM     18  C24 UNL     1     127.362 116.449 136.792  0.00  0.00    +0.000 C 
ATOM     19  C25 UNL     1     127.148 116.561 138.270  0.00  0.00    +0.000 C 
ATOM     20  C26 UNL     1     128.154 117.425 138.972  0.00  0.00    +0.000 C 
ATOM     21  C27 UNL     1     128.402 118.728 138.279  0.00  0.00    +0.000 C 
ATOM     22  F1  UNL     1     127.221 115.289 138.806  0.00  0.00    +0.000 F 
ATOM     23  F2  UNL     1     125.867 117.024 138.559  0.00  0.00    +0.000 F 
ENDBRANCH  15  16
ENDBRANCH   1   7
BRANCH   6  24
ATOM     24  N1  UNL     1     129.890 116.024 131.909  0.00  0.00    +0.000 N 
ATOM     25  C7  UNL     1     128.587 116.629 131.801  0.00  0.00    +0.000 C 
ATOM     26  C8  UNL     1     127.684 115.679 130.988  0.00  0.00    +0.000 C 
ATOM     27  C9  UNL     1     127.843 114.301 131.539  0.00  0.00    +0.000 C 
ATOM     28  C10 UNL     1     128.570 114.255 132.847  0.00  0.00    +0.000 C 
ATOM     29  C11 UNL     1     129.988 114.837 132.725  0.00  0.00    +0.000 C 
ATOM     30  C12 UNL     1     127.933 113.108 130.661  0.00  0.00    +0.000 C 
ATOM     31  C13 UNL     1     126.640 113.417 131.335  0.00  0.00    +0.000 C 
ENDBRANCH   6  24
BRANCH   4  32
ATOM     32  N2  UNL     1     133.463 115.387 128.663  0.00  0.00    +0.000 N 
ATOM     33  H16 UNL     1     134.102 115.950 128.023  0.00  0.00    +0.000 HD
BRANCH  32  34
ATOM     34  S1  UNL     1     133.367 113.710 128.532  0.00  0.00    +0.000 S 
ATOM     35  O2  UNL     1     134.158 113.131 129.717  0.00  0.00    +0.000 OA
ATOM     36  O3  UNL     1     134.165 113.301 127.288  0.00  0.00    +0.000 OA
BRANCH  34  37
ATOM     37  C14 UNL     1     131.767 113.000 128.470  0.00  0.00    +0.000 C 
BRANCH  37  38
ATOM     38  C15 UNL     1     131.428 112.378 127.161  0.00  0.00    +0.000 C 
BRANCH  38  39
ATOM     39  O1  UNL     1     132.280 111.377 126.770  0.00  0.00    +0.000 OA
ATOM     40  H21 UNL     1     132.639 111.476 125.855  0.00  0.00    +0.000 HD
ENDBRANCH  38  39
ENDBRANCH  37  38
ENDBRANCH  34  37
ENDBRANCH  32  34
ENDBRANCH   4  32
TORSDOF 8
ENDMDL
MODEL 7
REMARK VINA RESULT:     -10.2      1.366      1.958
REMARK  Name = aganitha_data/bbio_mols_pdbqt/BB_42.pdb
REMARK  8 active torsions:
REMARK  status: ('A' for Active; 'I' for Inactive)
REMARK    1  A    between atoms: C1_1  and  C16_22
REMARK    2  A    between atoms: C4_4  and  N2_15
REMARK    3  A    between atoms: C6_6  and  N1_7
REMARK    4  A    between atoms: N2_15  and  S1_16
REMARK    5  A    between atoms: S1_16  and  C14_17
REMARK    6  A    between atoms: C14_17  and  C15_18
REMARK    7  A    between atoms: C15_18  and  O1_19
REMARK    8  A    between atoms: C22_30  and  N4_31
REMARK                            x       y       z     vdW  Elec       q    Type
REMARK                         _______ _______ _______ _____ _____    ______ ____
ROOT
ATOM      1  C1  UNL     1     131.372 117.717 131.447  0.00  0.00    +0.000 A 
ATOM      2  C2  UNL     1     132.453 118.150 130.726  0.00  0.00    +0.000 A 
ATOM      3  C3  UNL     1     133.072 117.309 129.833  0.00  0.00    +0.000 A 
ATOM      4  C4  UNL     1     132.633 115.981 129.617  0.00  0.00    +0.000 A 
ATOM      5  C5  UNL     1     131.555 115.577 130.345  0.00  0.00    +0.000 A 
ATOM      6  C6  UNL     1     130.937 116.458 131.257  0.00  0.00    +0.000 A 
ENDROOT
BRANCH   1   7
ATOM      7  C16 UNL     1     130.667 118.558 132.446  0.00  0.00    +0.000 A 
ATOM      8  S2  UNL     1     130.262 117.779 134.067  0.00  0.00    +0.000 S 
ATOM      9  C17 UNL     1     129.462 119.271 134.714  0.00  0.00    +0.000 A 
ATOM     10  C18 UNL     1     129.606 120.123 133.651  0.00  0.00    +0.000 A 
ATOM     11  N3  UNL     1     130.216 119.642 132.606  0.00  0.00    +0.000 NA
ATOM     12  C19 UNL     1     129.066 121.398 133.855  0.00  0.00    +0.000 A 
ATOM     13  C20 UNL     1     128.449 121.733 135.031  0.00  0.00    +0.000 A 
ATOM     14  C21 UNL     1     128.318 120.863 136.076  0.00  0.00    +0.000 A 
ATOM     15  C22 UNL     1     128.838 119.584 135.925  0.00  0.00    +0.000 A 
BRANCH  15  16
ATOM     16  N4  UNL     1     128.772 118.592 136.944  0.00  0.00    +0.000 N 
ATOM     17  C23 UNL     1     127.752 117.570 136.827  0.00  0.00    +0.000 C 
ATOM     18  C24 UNL     1     126.888 117.641 138.066  0.00  0.00    +0.000 C 
ATOM     19  C25 UNL     1     127.738 117.494 139.290  0.00  0.00    +0.000 C 
ATOM     20  C26 UNL     1     129.213 117.473 139.014  0.00  0.00    +0.000 C 
ATOM     21  C27 UNL     1     129.656 118.550 138.074  0.00  0.00    +0.000 C 
ATOM     22  F1  UNL     1     127.395 116.304 139.903  0.00  0.00    +0.000 F 
ATOM     23  F2  UNL     1     127.461 118.496 140.217  0.00  0.00    +0.000 F 
ENDBRANCH  15  16
ENDBRANCH   1   7
BRANCH   6  24
ATOM     24  N1  UNL     1     129.815 115.956 131.941  0.00  0.00    +0.000 N 
ATOM     25  C7  UNL     1     128.521 116.574 131.819  0.00  0.00    +0.000 C 
ATOM     26  C8  UNL     1     127.602 115.614 131.035  0.00  0.00    +0.000 C 
ATOM     27  C9  UNL     1     127.745 114.251 131.625  0.00  0.00    +0.000 C 
ATOM     28  C10 UNL     1     128.475 114.232 132.932  0.00  0.00    +0.000 C 
ATOM     29  C11 UNL     1     129.900 114.792 132.790  0.00  0.00    +0.000 C 
ATOM     30  C12 UNL     1     127.817 113.032 130.781  0.00  0.00    +0.000 C 
ATOM     31  C13 UNL     1     126.530 113.377 131.449  0.00  0.00    +0.000 C 
ENDBRANCH   6  24
BRANCH   4  32
ATOM     32  N2  UNL     1     133.351 115.190 128.682  0.00  0.00    +0.000 N 
ATOM     33  H16 UNL     1     133.137 115.387 127.657  0.00  0.00    +0.000 HD
BRANCH  32  34
ATOM     34  S1  UNL     1     134.476 114.015 129.122  0.00  0.00    +0.000 S 
ATOM     35  O2  UNL     1     134.002 113.434 130.464  0.00  0.00    +0.000 OA
ATOM     36  O3  UNL     1     135.789 114.738 129.446  0.00  0.00    +0.000 OA
BRANCH  34  37
ATOM     37  C14 UNL     1     134.776 112.725 127.977  0.00  0.00    +0.000 C 
BRANCH  37  38
ATOM     38  C15 UNL     1     133.705 112.553 126.958  0.00  0.00    +0.000 C 
BRANCH  38  39
ATOM     39  O1  UNL     1     132.520 112.074 127.456  0.00  0.00    +0.000 OA
ATOM     40  H21 UNL     1     131.834 112.766 127.623  0.00  0.00    +0.000 HD
ENDBRANCH  38  39
ENDBRANCH  37  38
ENDBRANCH  34  37
ENDBRANCH  32  34
ENDBRANCH   4  32
TORSDOF 8
ENDMDL
MODEL 8
REMARK VINA RESULT:     -10.2      0.965      1.105
REMARK  Name = aganitha_data/bbio_mols_pdbqt/BB_42.pdb
REMARK  8 active torsions:
REMARK  status: ('A' for Active; 'I' for Inactive)
REMARK    1  A    between atoms: C1_1  and  C16_22
REMARK    2  A    between atoms: C4_4  and  N2_15
REMARK    3  A    between atoms: C6_6  and  N1_7
REMARK    4  A    between atoms: N2_15  and  S1_16
REMARK    5  A    between atoms: S1_16  and  C14_17
REMARK    6  A    between atoms: C14_17  and  C15_18
REMARK    7  A    between atoms: C15_18  and  O1_19
REMARK    8  A    between atoms: C22_30  and  N4_31
REMARK                            x       y       z     vdW  Elec       q    Type
REMARK                         _______ _______ _______ _____ _____    ______ ____
ROOT
ATOM      1  C1  UNL     1     130.991 116.573 131.371  0.00  0.00    +0.000 A 
ATOM      2  C2  UNL     1     132.108 116.588 130.578  0.00  0.00    +0.000 A 
ATOM      3  C3  UNL     1     132.431 115.493 129.813  0.00  0.00    +0.000 A 
ATOM      4  C4  UNL     1     131.641 114.318 129.807  0.00  0.00    +0.000 A 
ATOM      5  C5  UNL     1     130.536 114.329 130.602  0.00  0.00    +0.000 A 
ATOM      6  C6  UNL     1     130.226 115.465 131.379  0.00  0.00    +0.000 A 
ENDROOT
BRANCH   1   7
ATOM      7  C16 UNL     1     130.591 117.706 132.240  0.00  0.00    +0.000 A 
ATOM      8  S2  UNL     1     130.021 117.299 133.946  0.00  0.00    +0.000 S 
ATOM      9  C17 UNL     1     129.711 119.031 134.379  0.00  0.00    +0.000 A 
ATOM     10  C18 UNL     1     130.069 119.658 133.214  0.00  0.00    +0.000 A 
ATOM     11  N3  UNL     1     130.482 118.887 132.250  0.00  0.00    +0.000 NA
ATOM     12  C19 UNL     1     129.931 121.050 133.240  0.00  0.00    +0.000 A 
ATOM     13  C20 UNL     1     129.473 121.702 134.354  0.00  0.00    +0.000 A 
ATOM     14  C21 UNL     1     129.122 121.053 135.504  0.00  0.00    +0.000 A 
ATOM     15  C22 UNL     1     129.240 119.669 135.530  0.00  0.00    +0.000 A 
BRANCH  15  16
ATOM     16  N4  UNL     1     128.915 118.883 136.671  0.00  0.00    +0.000 N 
ATOM     17  C23 UNL     1     129.990 118.520 137.571  0.00  0.00    +0.000 C 
ATOM     18  C24 UNL     1     130.042 117.011 137.639  0.00  0.00    +0.000 C 
ATOM     19  C25 UNL     1     128.709 116.473 138.060  0.00  0.00    +0.000 C 
ATOM     20  C26 UNL     1     127.631 117.512 138.156  0.00  0.00    +0.000 C 
ATOM     21  C27 UNL     1     127.586 118.431 136.975  0.00  0.00    +0.000 C 
ATOM     22  F1  UNL     1     128.861 115.891 139.304  0.00  0.00    +0.000 F 
ATOM     23  F2  UNL     1     128.287 115.454 137.210  0.00  0.00    +0.000 F 
ENDBRANCH  15  16
ENDBRANCH   1   7
BRANCH   6  24
ATOM     24  N1  UNL     1     129.050 115.390 132.147  0.00  0.00    +0.000 N 
ATOM     25  C7  UNL     1     127.820 115.991 131.700  0.00  0.00    +0.000 C 
ATOM     26  C8  UNL     1     126.833 114.859 131.347  0.00  0.00    +0.000 C 
ATOM     27  C9  UNL     1     126.839 113.872 132.468  0.00  0.00    +0.000 C 
ATOM     28  C10 UNL     1     127.538 114.361 133.697  0.00  0.00    +0.000 C 
ATOM     29  C11 UNL     1     129.011 114.699 133.413  0.00  0.00    +0.000 C 
ATOM     30  C12 UNL     1     126.816 112.408 132.228  0.00  0.00    +0.000 C 
ATOM     31  C13 UNL     1     125.553 113.100 132.610  0.00  0.00    +0.000 C 
ENDBRANCH   6  24
BRANCH   4  32
ATOM     32  N2  UNL     1     132.071 113.237 128.992  0.00  0.00    +0.000 N 
ATOM     33  H16 UNL     1     131.436 112.382 128.995  0.00  0.00    +0.000 HD
BRANCH  32  34
ATOM     34  S1  UNL     1     133.479 113.269 128.067  0.00  0.00    +0.000 S 
ATOM     35  O2  UNL     1     133.321 114.424 127.065  0.00  0.00    +0.000 OA
ATOM     36  O3  UNL     1     133.489 111.999 127.206  0.00  0.00    +0.000 OA
BRANCH  34  37
ATOM     37  C14 UNL     1     134.999 113.415 128.924  0.00  0.00    +0.000 C 
BRANCH  37  38
ATOM     38  C15 UNL     1     135.030 112.705 130.232  0.00  0.00    +0.000 C 
BRANCH  38  39
ATOM     39  O1  UNL     1     134.074 111.733 130.374  0.00  0.00    +0.000 OA
ATOM     40  H21 UNL     1     133.705 111.391 129.523  0.00  0.00    +0.000 HD
ENDBRANCH  38  39
ENDBRANCH  37  38
ENDBRANCH  34  37
ENDBRANCH  32  34
ENDBRANCH   4  32
TORSDOF 8
ENDMDL
MODEL 9
REMARK VINA RESULT:      -9.6      4.139      7.878
REMARK  Name = aganitha_data/bbio_mols_pdbqt/BB_42.pdb
REMARK  8 active torsions:
REMARK  status: ('A' for Active; 'I' for Inactive)
REMARK    1  A    between atoms: C1_1  and  C16_22
REMARK    2  A    between atoms: C4_4  and  N2_15
REMARK    3  A    between atoms: C6_6  and  N1_7
REMARK    4  A    between atoms: N2_15  and  S1_16
REMARK    5  A    between atoms: S1_16  and  C14_17
REMARK    6  A    between atoms: C14_17  and  C15_18
REMARK    7  A    between atoms: C15_18  and  O1_19
REMARK    8  A    between atoms: C22_30  and  N4_31
REMARK                            x       y       z     vdW  Elec       q    Type
REMARK                         _______ _______ _______ _____ _____    ______ ____
ROOT
ATOM      1  C1  UNL     1     129.692 117.893 133.633  0.00  0.00    +0.000 A 
ATOM      2  C2  UNL     1     129.651 118.715 134.728  0.00  0.00    +0.000 A 
ATOM      3  C3  UNL     1     128.766 118.467 135.749  0.00  0.00    +0.000 A 
ATOM      4  C4  UNL     1     127.869 117.371 135.721  0.00  0.00    +0.000 A 
ATOM      5  C5  UNL     1     127.931 116.570 134.622  0.00  0.00    +0.000 A 
ATOM      6  C6  UNL     1     128.848 116.845 133.586  0.00  0.00    +0.000 A 
ENDROOT
BRANCH   1   7
ATOM      7  C16 UNL     1     130.603 118.110 132.482  0.00  0.00    +0.000 A 
ATOM      8  S2  UNL     1     131.352 116.614 131.707  0.00  0.00    +0.000 S 
ATOM      9  C17 UNL     1     132.281 117.574 130.483  0.00  0.00    +0.000 A 
ATOM     10  C18 UNL     1     131.910 118.850 130.817  0.00  0.00    +0.000 A 
ATOM     11  N3  UNL     1     131.083 118.965 131.816  0.00  0.00    +0.000 NA
ATOM     12  C19 UNL     1     132.487 119.847 130.024  0.00  0.00    +0.000 A 
ATOM     13  C20 UNL     1     133.349 119.540 129.005  0.00  0.00    +0.000 A 
ATOM     14  C21 UNL     1     133.704 118.258 128.692  0.00  0.00    +0.000 A 
ATOM     15  C22 UNL     1     133.159 117.230 129.450  0.00  0.00    +0.000 A 
BRANCH  15  16
ATOM     16  N4  UNL     1     133.444 115.856 129.216  0.00  0.00    +0.000 N 
ATOM     17  C23 UNL     1     132.500 115.094 128.424  0.00  0.00    +0.000 C 
ATOM     18  C24 UNL     1     132.014 113.941 129.273  0.00  0.00    +0.000 C 
ATOM     19  C25 UNL     1     133.180 113.130 129.747  0.00  0.00    +0.000 C 
ATOM     20  C26 UNL     1     134.517 113.724 129.413  0.00  0.00    +0.000 C 
ATOM     21  C27 UNL     1     134.610 115.186 129.720  0.00  0.00    +0.000 C 
ATOM     22  F1  UNL     1     133.099 111.885 129.153  0.00  0.00    +0.000 F 
ATOM     23  F2  UNL     1     133.111 112.904 131.119  0.00  0.00    +0.000 F 
ENDBRANCH  15  16
ENDBRANCH   1   7
BRANCH   6  24
ATOM     24  N1  UNL     1     128.854 115.944 132.506  0.00  0.00    +0.000 N 
ATOM     25  C7  UNL     1     129.627 114.730 132.544  0.00  0.00    +0.000 C 
ATOM     26  C8  UNL     1     128.649 113.540 132.629  0.00  0.00    +0.000 C 
ATOM     27  C9  UNL     1     127.587 113.738 131.598  0.00  0.00    +0.000 C 
ATOM     28  C10 UNL     1     127.897 114.824 130.615  0.00  0.00    +0.000 C 
ATOM     29  C11 UNL     1     128.079 116.182 131.313  0.00  0.00    +0.000 C 
ATOM     30  C12 UNL     1     126.158 113.449 131.875  0.00  0.00    +0.000 C 
ATOM     31  C13 UNL     1     126.964 112.457 131.108  0.00  0.00    +0.000 C 
ENDBRANCH   6  24
BRANCH   4  32
ATOM     32  N2  UNL     1     126.985 117.213 136.820  0.00  0.00    +0.000 N 
ATOM     33  H16 UNL     1     126.122 117.837 136.808  0.00  0.00    +0.000 HD
BRANCH  32  34
ATOM     34  S1  UNL     1     127.245 116.120 138.077  0.00  0.00    +0.000 S 
ATOM     35  O2  UNL     1     128.576 115.413 137.776  0.00  0.00    +0.000 OA
ATOM     36  O3  UNL     1     126.179 115.024 137.957  0.00  0.00    +0.000 OA
BRANCH  34  37
ATOM     37  C14 UNL     1     127.256 116.761 139.706  0.00  0.00    +0.000 C 
BRANCH  37  38
ATOM     38  C15 UNL     1     128.138 117.946 139.889  0.00  0.00    +0.000 C 
BRANCH  38  39
ATOM     39  O1  UNL     1     127.977 118.924 138.941  0.00  0.00    +0.000 OA
ATOM     40  H21 UNL     1     127.663 119.792 139.294  0.00  0.00    +0.000 HD
ENDBRANCH  38  39
ENDBRANCH  37  38
ENDBRANCH  34  37
ENDBRANCH  32  34
ENDBRANCH   4  32
TORSDOF 8
ENDMDL
