REMARK  Name = aganitha_data/bbio_mols_pdbqt/4.pdb
REMARK  7 active torsions:
REMARK  status: ('A' for Active; 'I' for Inactive)
REMARK    1  A    between atoms: C1_2  and  C9_11
REMARK    2  A    between atoms: N1_3  and  C2_4
REMARK    3  A    between atoms: C2_4  and  C3_5
REMARK    4  A    between atoms: C11_14  and  C12_15
REMARK    5  A    between atoms: C12_15  and  S1_16
REMARK    6  A    between atoms: S1_16  and  C13_17
REMARK    7  A    between atoms: C21_27  and  C22_28
REMARK                            x       y       z     vdW  Elec       q    Type
REMARK                         _______ _______ _______ _____ _____    ______ ____
ROOT
ATOM      1  C9  UNL     1      -0.625  -0.461   0.694  0.00  0.00    +0.000 A 
ATOM      2  C10 UNL     1       0.082  -0.114  -0.421  0.00  0.00    +0.000 A 
ATOM      3  F1  UNL     1      -0.461   0.721  -1.348  0.00  0.00    +0.000 F 
ATOM      4  C11 UNL     1       1.384  -0.618  -0.682  0.00  0.00    +0.000 A 
ATOM      5  C19 UNL     1       1.974  -1.480   0.191  0.00  0.00    +0.000 A 
ATOM      6  C20 UNL     1       1.267  -1.834   1.317  0.00  0.00    +0.000 A 
ATOM      7  C21 UNL     1      -0.006  -1.345   1.579  0.00  0.00    +0.000 A 
ENDROOT
BRANCH   1   9
ATOM      8  O1  UNL     1      -2.771  -0.481   1.780  0.00  0.00    +0.000 OA
ATOM      9  C1  UNL     1      -1.946   0.100   0.991  0.00  0.00    +0.000 C 
ATOM     10  N1  UNL     1      -2.422   1.321   0.443  0.00  0.00    +0.000 N 
ATOM     11  H1  UNL     1      -1.798   1.860  -0.185  0.00  0.00    +0.000 HD
BRANCH  10  12
ATOM     12  C2  UNL     1      -3.758   1.825   0.766  0.00  0.00    +0.000 C 
BRANCH  12  13
ATOM     13  C3  UNL     1      -4.823   1.153   0.019  0.00  0.00    +0.000 A 
ATOM     14  C4  UNL     1      -5.617   0.155   0.539  0.00  0.00    +0.000 A 
ATOM     15  C5  UNL     1      -6.604  -0.432  -0.256  0.00  0.00    +0.000 A 
ATOM     16  C6  UNL     1      -6.823  -0.053  -1.561  0.00  0.00    +0.000 A 
ATOM     17  C7  UNL     1      -6.033   0.944  -2.088  0.00  0.00    +0.000 A 
ATOM     18  C8  UNL     1      -5.065   1.520  -1.308  0.00  0.00    +0.000 A 
ENDBRANCH  12  13
ENDBRANCH  10  12
ENDBRANCH   1   9
BRANCH   7  19
ATOM     19  C22 UNL     1      -0.701  -1.764   2.798  0.00  0.00    +0.000 C 
ATOM     20  F2  UNL     1      -1.023  -0.684   3.594  0.00  0.00    +0.000 F 
ATOM     21  F3  UNL     1      -1.775  -2.593   2.609  0.00  0.00    +0.000 F 
ATOM     22  F4  UNL     1       0.212  -2.558   3.543  0.00  0.00    +0.000 F 
ENDBRANCH   7  19
BRANCH   4  23
ATOM     23  C12 UNL     1       2.015  -0.212  -1.936  0.00  0.00    +0.000 C 
BRANCH  23  24
ATOM     24  S1  UNL     1       3.648  -0.760  -2.132  0.00  0.00    +0.000 S 
ATOM     25  O2  UNL     1       3.777  -2.260  -2.115  0.00  0.00    +0.000 OA
ATOM     26  O3  UNL     1       4.106  -0.334  -3.526  0.00  0.00    +0.000 OA
BRANCH  24  27
ATOM     27  C13 UNL     1       4.790  -0.121  -0.981  0.00  0.00    +0.000 A 
ATOM     28  C14 UNL     1       5.452  -0.852  -0.033  0.00  0.00    +0.000 A 
ATOM     29  C15 UNL     1       6.349  -0.298   0.883  0.00  0.00    +0.000 A 
ATOM     30  C16 UNL     1       6.608   1.056   0.861  0.00  0.00    +0.000 A 
ATOM     31  C17 UNL     1       5.950   1.805  -0.089  0.00  0.00    +0.000 A 
ATOM     32  C18 UNL     1       5.071   1.258  -0.984  0.00  0.00    +0.000 A 
ENDBRANCH  24  27
ENDBRANCH  23  24
ENDBRANCH   4  23
TORSDOF 7
