REMARK  Name = aganitha_data/bbio_mols_pdbqt/5.pdb
REMARK  7 active torsions:
REMARK  status: ('A' for Active; 'I' for Inactive)
REMARK    1  A    between atoms: C1_2  and  C10_12
REMARK    2  A    between atoms: N1_3  and  C2_4
REMARK    3  A    between atoms: C7_9  and  C8_10
REMARK    4  A    between atoms: C12_15  and  C13_16
REMARK    5  A    between atoms: C13_16  and  S1_17
REMARK    6  A    between atoms: S1_17  and  C14_18
REMARK    7  A    between atoms: C22_28  and  C23_29
REMARK                            x       y       z     vdW  Elec       q    Type
REMARK                         _______ _______ _______ _____ _____    ______ ____
ROOT
ATOM      1  C10 UNL     1      -0.480   0.310   1.278  0.00  0.00    +0.000 A 
ATOM      2  C11 UNL     1       0.198   0.743   0.162  0.00  0.00    +0.000 A 
ATOM      3  F1  UNL     1      -0.408   1.221  -0.951  0.00  0.00    +0.000 F 
ATOM      4  C12 UNL     1       1.606   0.748   0.100  0.00  0.00    +0.000 A 
ATOM      5  C20 UNL     1       2.245   0.297   1.221  0.00  0.00    +0.000 A 
ATOM      6  C21 UNL     1       1.578  -0.137   2.341  0.00  0.00    +0.000 A 
ATOM      7  C22 UNL     1       0.176  -0.143   2.404  0.00  0.00    +0.000 A 
ENDROOT
BRANCH   1   9
ATOM      8  O1  UNL     1      -2.531   0.115   2.369  0.00  0.00    +0.000 OA
ATOM      9  C1  UNL     1      -1.959   0.262   1.269  0.00  0.00    +0.000 C 
ATOM     10  N1  UNL     1      -2.754   0.367   0.124  0.00  0.00    +0.000 N 
ATOM     11  H1  UNL     1      -2.289   0.443  -0.813  0.00  0.00    +0.000 HD
BRANCH  10  12
ATOM     12  C2  UNL     1      -4.181   0.311   0.156  0.00  0.00    +0.000 A 
ATOM     13  C3  UNL     1      -4.921  -0.177   1.199  0.00  0.00    +0.000 A 
ATOM     14  C4  UNL     1      -6.316  -0.272   1.066  0.00  0.00    +0.000 A 
ATOM     15  C5  UNL     1      -6.946   0.111  -0.075  0.00  0.00    +0.000 A 
ATOM     16  C6  UNL     1      -6.211   0.597  -1.112  0.00  0.00    +0.000 A 
ATOM     17  C7  UNL     1      -4.824   0.710  -1.023  0.00  0.00    +0.000 A 
BRANCH  17  18
ATOM     18  C8  UNL     1      -4.147   1.318  -2.159  0.00  0.00    +0.000 C 
ATOM     19  C9  UNL     1      -3.219   2.238  -2.056  0.00  0.00    +0.000 C 
ENDBRANCH  17  18
ENDBRANCH  10  12
ENDBRANCH   1   9
BRANCH   7  20
ATOM     20  C23 UNL     1      -0.475  -0.601   3.661  0.00  0.00    +0.000 C 
ATOM     21  F2  UNL     1      -1.188   0.358   4.307  0.00  0.00    +0.000 F 
ATOM     22  F3  UNL     1       0.529  -1.074   4.527  0.00  0.00    +0.000 F 
ATOM     23  F4  UNL     1      -1.264  -1.742   3.457  0.00  0.00    +0.000 F 
ENDBRANCH   7  20
BRANCH   4  24
ATOM     24  C13 UNL     1       2.277   1.252  -1.112  0.00  0.00    +0.000 C 
BRANCH  24  25
ATOM     25  S1  UNL     1       4.007   1.172  -1.170  0.00  0.00    +0.000 S 
ATOM     26  O2  UNL     1       4.496   1.847  -2.451  0.00  0.00    +0.000 OA
ATOM     27  O3  UNL     1       4.586   1.979  -0.032  0.00  0.00    +0.000 OA
BRANCH  25  28
ATOM     28  C14 UNL     1       4.705  -0.411  -1.121  0.00  0.00    +0.000 A 
ATOM     29  C15 UNL     1       4.593  -1.269  -2.227  0.00  0.00    +0.000 A 
ATOM     30  C16 UNL     1       5.167  -2.520  -2.241  0.00  0.00    +0.000 A 
ATOM     31  C17 UNL     1       5.882  -2.992  -1.164  0.00  0.00    +0.000 A 
ATOM     32  C18 UNL     1       6.009  -2.174  -0.066  0.00  0.00    +0.000 A 
ATOM     33  C19 UNL     1       5.422  -0.910  -0.068  0.00  0.00    +0.000 A 
ENDBRANCH  25  28
ENDBRANCH  24  25
ENDBRANCH   4  24
TORSDOF 7
