REMARK  Name = aganitha_data/bbio_mols_pdbqt/6.pdb
REMARK  7 active torsions:
REMARK  status: ('A' for Active; 'I' for Inactive)
REMARK    1  A    between atoms: C1_2  and  C14_16
REMARK    2  A    between atoms: N1_3  and  C2_4
REMARK    3  A    between atoms: C6_8  and  C7_9
REMARK    4  A    between atoms: C16_19  and  C17_20
REMARK    5  A    between atoms: C17_20  and  S1_21
REMARK    6  A    between atoms: S1_21  and  C18_22
REMARK    7  A    between atoms: C26_32  and  C27_33
REMARK                            x       y       z     vdW  Elec       q    Type
REMARK                         _______ _______ _______ _____ _____    ______ ____
ROOT
ATOM      1  C14 UNL     1      -0.859   0.205   0.157  0.00  0.00    +0.000 A 
ATOM      2  C15 UNL     1      -1.820   0.437  -0.839  0.00  0.00    +0.000 A 
ATOM      3  F1  UNL     1      -1.449   0.291  -2.146  0.00  0.00    +0.000 F 
ATOM      4  C16 UNL     1      -3.124   0.809  -0.589  0.00  0.00    +0.000 A 
ATOM      5  C24 UNL     1      -3.460   0.949   0.734  0.00  0.00    +0.000 A 
ATOM      6  C25 UNL     1      -2.534   0.726   1.725  0.00  0.00    +0.000 A 
ATOM      7  C26 UNL     1      -1.201   0.346   1.469  0.00  0.00    +0.000 A 
ENDROOT
BRANCH   1   9
ATOM      8  O1  UNL     1       0.338  -1.027  -1.353  0.00  0.00    +0.000 OA
ATOM      9  C1  UNL     1       0.453  -0.285  -0.286  0.00  0.00    +0.000 C 
ATOM     10  N1  UNL     1       1.700  -0.064   0.251  0.00  0.00    +0.000 N 
ATOM     11  H1  UNL     1       1.784   0.578   1.079  0.00  0.00    +0.000 HD
BRANCH  10  12
ATOM     12  C2  UNL     1       2.896  -0.638  -0.290  0.00  0.00    +0.000 A 
ATOM     13  C3  UNL     1       2.951  -1.707  -1.114  0.00  0.00    +0.000 A 
ATOM     14  C4  UNL     1       4.158  -2.163  -1.596  0.00  0.00    +0.000 A 
ATOM     15  C5  UNL     1       5.354  -1.579  -1.281  0.00  0.00    +0.000 A 
ATOM     16  C6  UNL     1       5.310  -0.489  -0.441  0.00  0.00    +0.000 A 
ATOM     17  C13 UNL     1       4.119  -0.024   0.046  0.00  0.00    +0.000 A 
BRANCH  16  18
ATOM     18  C7  UNL     1       6.551   0.190  -0.058  0.00  0.00    +0.000 A 
ATOM     19  C8  UNL     1       7.602   0.229  -0.943  0.00  0.00    +0.000 A 
ATOM     20  C9  UNL     1       8.760   0.871  -0.564  0.00  0.00    +0.000 A 
ATOM     21  C10 UNL     1       8.889   1.477   0.685  0.00  0.00    +0.000 A 
ATOM     22  C11 UNL     1       7.833   1.434   1.566  0.00  0.00    +0.000 A 
ATOM     23  C12 UNL     1       6.685   0.789   1.172  0.00  0.00    +0.000 A 
ENDBRANCH  16  18
ENDBRANCH  10  12
ENDBRANCH   1   9
BRANCH   7  24
ATOM     24  C27 UNL     1      -0.306   0.168   2.629  0.00  0.00    +0.000 C 
ATOM     25  F2  UNL     1       0.381  -1.018   2.631  0.00  0.00    +0.000 F 
ATOM     26  F3  UNL     1      -1.163  -0.020   3.789  0.00  0.00    +0.000 F 
ATOM     27  F4  UNL     1       0.467   1.221   2.933  0.00  0.00    +0.000 F 
ENDBRANCH   7  24
BRANCH   4  28
ATOM     28  C17 UNL     1      -4.021   1.056  -1.737  0.00  0.00    +0.000 C 
BRANCH  28  29
ATOM     29  S1  UNL     1      -5.669   1.445  -1.410  0.00  0.00    +0.000 S 
ATOM     30  O2  UNL     1      -6.366   1.659  -2.752  0.00  0.00    +0.000 OA
ATOM     31  O3  UNL     1      -5.848   2.753  -0.679  0.00  0.00    +0.000 OA
BRANCH  29  32
ATOM     32  C18 UNL     1      -6.558   0.174  -0.611  0.00  0.00    +0.000 A 
ATOM     33  C19 UNL     1      -6.988   0.253   0.673  0.00  0.00    +0.000 A 
ATOM     34  C20 UNL     1      -7.684  -0.805   1.250  0.00  0.00    +0.000 A 
ATOM     35  C21 UNL     1      -7.946  -1.944   0.527  0.00  0.00    +0.000 A 
ATOM     36  C22 UNL     1      -7.502  -1.998  -0.768  0.00  0.00    +0.000 A 
ATOM     37  C23 UNL     1      -6.812  -0.970  -1.362  0.00  0.00    +0.000 A 
ENDBRANCH  29  32
ENDBRANCH  28  29
ENDBRANCH   4  28
TORSDOF 7
