REMARK  Name = aganitha_data/bbio_mols_pdbqt/AGAN245-df-11-CN.pdb
REMARK  8 active torsions:
REMARK  status: ('A' for Active; 'I' for Inactive)
REMARK    1  A    between atoms: C1_2  and  C2_4
REMARK    2  A    between atoms: C5_7  and  N2_8
REMARK    3  A    between atoms: C6_9  and  C7_11
REMARK    4  A    between atoms: C9_14  and  C10_15
REMARK    5  A    between atoms: C10_15  and  S1_16
REMARK    6  A    between atoms: S1_16  and  C11_19
REMARK    7  A    between atoms: C19_27  and  C20_28
REMARK    8  A    between atoms: C21_32  and  C23_34
REMARK                            x       y       z     vdW  Elec       q    Type
REMARK                         _______ _______ _______ _____ _____    ______ ____
ROOT
ATOM      1  N2  UNL     1      -2.038  -0.513  -0.293  0.00  0.00    +0.000 N 
ATOM      2  C6  UNL     1      -0.662  -0.659  -0.352  0.00  0.00    +0.000 C 
ATOM      3  O2  UNL     1      -0.244  -1.848   0.008  0.00  0.00    +0.000 OA
ATOM      4  H5  UNL     1      -2.421   0.406  -0.539  0.00  0.00    +0.000 HD
ENDROOT
BRANCH   2   5
ATOM      5  C7  UNL     1       0.403   0.217  -0.720  0.00  0.00    +0.000 A 
ATOM      6  C8  UNL     1       1.673  -0.047  -0.143  0.00  0.00    +0.000 A 
ATOM      7  F1  UNL     1       1.769  -1.030   0.803  0.00  0.00    +0.000 F 
ATOM      8  C9  UNL     1       2.810   0.640  -0.480  0.00  0.00    +0.000 A 
ATOM      9  C17 UNL     1       2.743   1.634  -1.419  0.00  0.00    +0.000 A 
ATOM     10  C18 UNL     1       1.556   1.918  -1.992  0.00  0.00    +0.000 A 
ATOM     11  C19 UNL     1       0.372   1.203  -1.638  0.00  0.00    +0.000 A 
BRANCH  11  12
ATOM     12  C20 UNL     1      -0.881   1.656  -2.286  0.00  0.00    +0.000 C 
ATOM     13  F2  UNL     1      -1.719   2.336  -1.452  0.00  0.00    +0.000 F 
ATOM     14  F3  UNL     1      -1.496   0.611  -2.971  0.00  0.00    +0.000 F 
ATOM     15  F4  UNL     1      -0.557   2.569  -3.303  0.00  0.00    +0.000 F 
ENDBRANCH  11  12
BRANCH   8  16
ATOM     16  C10 UNL     1       4.113   0.328   0.154  0.00  0.00    +0.000 C 
BRANCH  16  17
ATOM     17  S1  UNL     1       5.413   1.346  -0.445  0.00  0.00    +0.000 S 
ATOM     18  O3  UNL     1       5.667   1.156  -1.916  0.00  0.00    +0.000 OA
ATOM     19  O4  UNL     1       5.197   2.804  -0.143  0.00  0.00    +0.000 OA
BRANCH  17  20
ATOM     20  C11 UNL     1       6.909   0.903   0.364  0.00  0.00    +0.000 A 
ATOM     21  C12 UNL     1       7.726  -0.073  -0.184  0.00  0.00    +0.000 A 
ATOM     22  C13 UNL     1       8.891  -0.402   0.468  0.00  0.00    +0.000 A 
ATOM     23  C14 UNL     1       9.276   0.200   1.641  0.00  0.00    +0.000 A 
ATOM     24  C15 UNL     1       8.453   1.165   2.168  0.00  0.00    +0.000 A 
ATOM     25  C16 UNL     1       7.291   1.503   1.531  0.00  0.00    +0.000 A 
ENDBRANCH  17  20
ENDBRANCH  16  17
ENDBRANCH   8  16
ENDBRANCH   2   5
BRANCH   1  29
ATOM     26  C2  UNL     1      -5.045  -3.372   0.721  0.00  0.00    +0.000 A 
ATOM     27  C3  UNL     1      -3.752  -3.778   0.534  0.00  0.00    +0.000 A 
ATOM     28  C4  UNL     1      -2.743  -2.845   0.219  0.00  0.00    +0.000 A 
ATOM     29  C5  UNL     1      -2.982  -1.506   0.083  0.00  0.00    +0.000 A 
ATOM     30  C21 UNL     1      -4.311  -1.092   0.277  0.00  0.00    +0.000 A 
ATOM     31  C22 UNL     1      -5.304  -2.034   0.590  0.00  0.00    +0.000 A 
BRANCH  30  32
ATOM     32  C23 UNL     1      -4.645   0.308   0.200  0.00  0.00    +0.000 A 
ATOM     33  C24 UNL     1      -3.988   1.227   0.968  0.00  0.00    +0.000 A 
ATOM     34  C25 UNL     1      -4.304   2.591   0.902  0.00  0.00    +0.000 A 
ATOM     35  C26 UNL     1      -5.295   2.994   0.044  0.00  0.00    +0.000 A 
ATOM     36  C27 UNL     1      -5.970   2.093  -0.737  0.00  0.00    +0.000 A 
ATOM     37  C28 UNL     1      -5.632   0.736  -0.650  0.00  0.00    +0.000 A 
ENDBRANCH  30  32
BRANCH  26  39
ATOM     38  N1  UNL     1      -7.461  -3.878   1.242  0.00  0.00    +0.000 N 
ATOM     39  C1  UNL     1      -6.124  -4.299   1.048  0.00  0.00    +0.000 C 
ATOM     40  O1  UNL     1      -5.876  -5.527   1.166  0.00  0.00    +0.000 OA
ATOM     41  H1  UNL     1      -8.028  -4.354   1.971  0.00  0.00    +0.000 HD
ATOM     42  H2  UNL     1      -7.892  -3.114   0.683  0.00  0.00    +0.000 HD
ENDBRANCH  26  39
ENDBRANCH   1  29
TORSDOF 8
