REMARK  Name = aganitha_data/bbio_mols_pdbqt/AGAN-407.pdb
REMARK  13 active torsions:
REMARK  status: ('A' for Active; 'I' for Inactive)
REMARK    1  A    between atoms: C1_1  and  N1_2
REMARK    2  A    between atoms: N1_2  and  C20_29
REMARK    3  A    between atoms: C2_3  and  C3_4
REMARK    4  A    between atoms: C3_4  and  C4_5
REMARK    5  A    between atoms: C4_5  and  C5_6
REMARK    6  A    between atoms: C8_10  and  S1_11
REMARK    7  A    between atoms: S1_11  and  N3_12
REMARK    8  A    between atoms: N4_23  and  C16_24
REMARK    9  A    between atoms: C16_24  and  C17_25
REMARK   10  A    between atoms: C17_25  and  C18_26
REMARK   11  A    between atoms: C18_26  and  C19_27
REMARK   12  A    between atoms: C20_29  and  C21_30
REMARK   13  A    between atoms: C25_36  and  N5_37
REMARK                            x       y       z     vdW  Elec       q    Type
REMARK                         _______ _______ _______ _____ _____    ______ ____
ROOT
ATOM      1  C5  UNL     1      -0.322  -0.867  -0.088  0.00  0.00    +0.000 A 
ATOM      2  N2  UNL     1      -1.244   0.113   0.429  0.00  0.00    +0.000 NA
ATOM      3  C6  UNL     1      -2.470  -0.326   0.194  0.00  0.00    +0.000 A 
ATOM      4  C7  UNL     1      -3.672   0.275   0.482  0.00  0.00    +0.000 A 
ATOM      5  C8  UNL     1      -4.852  -0.387   0.083  0.00  0.00    +0.000 A 
ATOM      6  C13 UNL     1      -4.778  -1.545  -0.553  0.00  0.00    +0.000 A 
ATOM      7  C14 UNL     1      -3.580  -2.194  -0.854  0.00  0.00    +0.000 A 
ATOM      8  C15 UNL     1      -2.404  -1.509  -0.440  0.00  0.00    +0.000 A 
ATOM      9  N4  UNL     1      -1.074  -1.799  -0.584  0.00  0.00    +0.000 N 
ENDROOT
BRANCH   5  10
ATOM     10  S1  UNL     1      -6.330   0.443   0.495  0.00  0.00    +0.000 S 
ATOM     11  O2  UNL     1      -7.490  -0.222  -0.161  0.00  0.00    +0.000 OA
ATOM     12  O3  UNL     1      -6.458   0.402   1.984  0.00  0.00    +0.000 OA
BRANCH  10  13
ATOM     13  N3  UNL     1      -6.131   2.065  -0.040  0.00  0.00    +0.000 NA
ATOM     14  C9  UNL     1      -5.887   3.017   0.995  0.00  0.00    +0.000 C 
ATOM     15  C10 UNL     1      -7.170   3.671   1.474  0.00  0.00    +0.000 C 
ATOM     16  O1  UNL     1      -8.016   3.956   0.441  0.00  0.00    +0.000 OA
ATOM     17  C11 UNL     1      -7.461   3.940  -0.818  0.00  0.00    +0.000 C 
ATOM     18  C12 UNL     1      -7.013   2.494  -1.078  0.00  0.00    +0.000 C 
ENDBRANCH  10  13
ENDBRANCH   5  10
BRANCH   1  19
ATOM     19  C4  UNL     1       1.019  -0.454   0.057  0.00  0.00    +0.000 C 
BRANCH  19  20
ATOM     20  C3  UNL     1       2.258  -0.982  -0.398  0.00  0.00    +0.000 C 
BRANCH  20  23
ATOM     21  C1  UNL     1       4.739  -1.647   1.107  0.00  0.00    +0.000 C 
ATOM     22  N1  UNL     1       4.443  -0.148   0.759  0.00  0.00    +0.000 N 
ATOM     23  C2  UNL     1       3.309  -0.030   0.084  0.00  0.00    +0.000 C 
ATOM     24  O4  UNL     1       2.954   1.229  -0.285  0.00  0.00    +0.000 OA
BRANCH  22  25
ATOM     25  C20 UNL     1       5.388   0.668   1.443  0.00  0.00    +0.000 C 
BRANCH  25  26
ATOM     26  C21 UNL     1       6.454   1.365   0.704  0.00  0.00    +0.000 A 
ATOM     27  C22 UNL     1       7.761   1.304   1.186  0.00  0.00    +0.000 A 
ATOM     28  F1  UNL     1       8.057   0.339   2.130  0.00  0.00    +0.000 F 
ATOM     29  C23 UNL     1       8.733   2.130   0.721  0.00  0.00    +0.000 A 
ATOM     30  C24 UNL     1       8.470   3.074  -0.252  0.00  0.00    +0.000 A 
ATOM     31 CL1  UNL     1       9.695   4.139  -0.881  0.00  0.00    +0.000 Cl
ATOM     32  C25 UNL     1       7.202   3.186  -0.766  0.00  0.00    +0.000 A 
ATOM     33  C26 UNL     1       6.195   2.321  -0.285  0.00  0.00    +0.000 A 
BRANCH  32  34
ATOM     34  N5  UNL     1       6.876   4.235  -1.702  0.00  0.00    +0.000 N 
ATOM     35  H31 UNL     1       7.181   5.200  -1.472  0.00  0.00    +0.000 HD
ATOM     36  H32 UNL     1       6.370   4.029  -2.568  0.00  0.00    +0.000 HD
ENDBRANCH  32  34
ENDBRANCH  25  26
ENDBRANCH  22  25
ENDBRANCH  20  23
ENDBRANCH  19  20
ENDBRANCH   1  19
BRANCH   9  37
ATOM     37  C16 UNL     1      -0.644  -3.084  -1.135  0.00  0.00    +0.000 C 
BRANCH  37  38
ATOM     38  C17 UNL     1      -0.598  -4.077   0.036  0.00  0.00    +0.000 C 
BRANCH  38  39
ATOM     39  C18 UNL     1      -0.313  -5.473  -0.232  0.00  0.00    +0.000 C 
ATOM     40  C19 UNL     1       0.984  -5.878  -0.844  0.00  0.00    +0.000 C 
ENDBRANCH  38  39
ENDBRANCH  37  38
ENDBRANCH   9  37
TORSDOF 11
