REMARK  Name = aganitha_data/bbio_mols_pdbqt/AGAN 245-df-2-CN.pdb
REMARK  8 active torsions:
REMARK  status: ('A' for Active; 'I' for Inactive)
REMARK    1  A    between atoms: C1_1  and  C2_2
REMARK    2  A    between atoms: C5_5  and  N1_6
REMARK    3  A    between atoms: C6_7  and  C7_9
REMARK    4  A    between atoms: C9_12  and  C10_13
REMARK    5  A    between atoms: C10_13  and  S1_14
REMARK    6  A    between atoms: S1_14  and  C11_17
REMARK    7  A    between atoms: C19_25  and  C20_26
REMARK    8  A    between atoms: C21_30  and  C23_32
REMARK                            x       y       z     vdW  Elec       q    Type
REMARK                         _______ _______ _______ _____ _____    ______ ____
ROOT
ATOM      1  C7  UNL     1       0.627  -0.304   0.222  0.00  0.00    +0.000 A 
ATOM      2  C8  UNL     1       1.466   0.749  -0.076  0.00  0.00    +0.000 A 
ATOM      3  F1  UNL     1       1.192   2.006   0.371  0.00  0.00    +0.000 F 
ATOM      4  C9  UNL     1       2.631   0.599  -0.843  0.00  0.00    +0.000 A 
ATOM      5  C17 UNL     1       2.881  -0.674  -1.280  0.00  0.00    +0.000 A 
ATOM      6  C18 UNL     1       2.041  -1.731  -0.981  0.00  0.00    +0.000 A 
ATOM      7  C19 UNL     1       0.881  -1.567  -0.213  0.00  0.00    +0.000 A 
ENDROOT
BRANCH   1   9
ATOM      8  N1  UNL     1      -1.868   0.005   0.664  0.00  0.00    +0.000 N 
ATOM      9  C6  UNL     1      -0.544  -0.039   1.087  0.00  0.00    +0.000 C 
ATOM     10  O1  UNL     1      -0.246   0.159   2.284  0.00  0.00    +0.000 OA
ATOM     11  H6  UNL     1      -2.020  -0.144  -0.383  0.00  0.00    +0.000 HD
BRANCH   8  16
ATOM     12  C1  UNL     1      -6.521   1.071   3.799  0.00  0.00    +0.000 C 
ATOM     13  C2  UNL     1      -5.305   0.789   3.001  0.00  0.00    +0.000 A 
ATOM     14  C3  UNL     1      -4.095   0.709   3.624  0.00  0.00    +0.000 A 
ATOM     15  C4  UNL     1      -2.954   0.440   2.842  0.00  0.00    +0.000 A 
ATOM     16  C5  UNL     1      -2.997   0.255   1.485  0.00  0.00    +0.000 A 
ATOM     17  C21 UNL     1      -4.266   0.345   0.877  0.00  0.00    +0.000 A 
ATOM     18  C22 UNL     1      -5.395   0.610   1.643  0.00  0.00    +0.000 A 
BRANCH  17  19
ATOM     19  C23 UNL     1      -4.469   0.140  -0.542  0.00  0.00    +0.000 A 
ATOM     20  C24 UNL     1      -4.127  -0.990  -1.233  0.00  0.00    +0.000 A 
ATOM     21  C25 UNL     1      -4.331  -1.130  -2.606  0.00  0.00    +0.000 A 
ATOM     22  C26 UNL     1      -4.900  -0.101  -3.318  0.00  0.00    +0.000 A 
ATOM     23  C27 UNL     1      -5.253   1.050  -2.635  0.00  0.00    +0.000 A 
ATOM     24  C28 UNL     1      -5.048   1.180  -1.279  0.00  0.00    +0.000 A 
ENDBRANCH  17  19
ENDBRANCH   8  16
ENDBRANCH   1   9
BRANCH   7  25
ATOM     25  C20 UNL     1       0.046  -2.771   0.085  0.00  0.00    +0.000 C 
ATOM     26  F2  UNL     1       0.640  -3.901  -0.488  0.00  0.00    +0.000 F 
ATOM     27  F3  UNL     1      -0.066  -2.995   1.444  0.00  0.00    +0.000 F 
ATOM     28  F4  UNL     1      -1.204  -2.615  -0.422  0.00  0.00    +0.000 F 
ENDBRANCH   7  25
BRANCH   4  29
ATOM     29  C10 UNL     1       3.445   1.786  -1.139  0.00  0.00    +0.000 C 
BRANCH  29  30
ATOM     30  S1  UNL     1       4.927   1.565  -2.009  0.00  0.00    +0.000 S 
ATOM     31  O2  UNL     1       5.522   2.935  -2.305  0.00  0.00    +0.000 OA
ATOM     32  O3  UNL     1       4.656   0.948  -3.364  0.00  0.00    +0.000 OA
BRANCH  30  33
ATOM     33  C11 UNL     1       6.067   0.603  -1.121  0.00  0.00    +0.000 A 
ATOM     34  C12 UNL     1       6.454  -0.661  -1.459  0.00  0.00    +0.000 A 
ATOM     35  C13 UNL     1       7.369  -1.399  -0.702  0.00  0.00    +0.000 A 
ATOM     36  C14 UNL     1       7.920  -0.850   0.438  0.00  0.00    +0.000 A 
ATOM     37  C15 UNL     1       7.546   0.420   0.797  0.00  0.00    +0.000 A 
ATOM     38  C16 UNL     1       6.648   1.125   0.041  0.00  0.00    +0.000 A 
ENDBRANCH  30  33
ENDBRANCH  29  30
ENDBRANCH   4  29
TORSDOF 7
