REMARK  Name = aganitha_data/bbio_mols_pdbqt/AGAN245-df-15-CN.pdb
REMARK  9 active torsions:
REMARK  status: ('A' for Active; 'I' for Inactive)
REMARK    1  A    between atoms: C1_2  and  C2_4
REMARK    2  A    between atoms: C2_4  and  C3_5
REMARK    3  A    between atoms: C6_8  and  N2_9
REMARK    4  A    between atoms: C7_10  and  C8_12
REMARK    5  A    between atoms: C10_15  and  C11_16
REMARK    6  A    between atoms: C11_16  and  S1_17
REMARK    7  A    between atoms: S1_17  and  C12_20
REMARK    8  A    between atoms: C20_28  and  C21_29
REMARK    9  A    between atoms: C22_33  and  C24_35
REMARK                            x       y       z     vdW  Elec       q    Type
REMARK                         _______ _______ _______ _____ _____    ______ ____
ROOT
ATOM      1  N2  UNL     1      -1.439   0.410  -0.549  0.00  0.00    +0.000 N 
ATOM      2  C7  UNL     1      -0.421   0.897  -1.395  0.00  0.00    +0.000 C 
ATOM      3  O2  UNL     1      -0.770   1.856  -2.126  0.00  0.00    +0.000 OA
ATOM      4  H7  UNL     1      -1.178  -0.399   0.077  0.00  0.00    +0.000 HD
ENDROOT
BRANCH   2   5
ATOM      5  C8  UNL     1       0.950   0.392  -1.484  0.00  0.00    +0.000 A 
ATOM      6  C9  UNL     1       1.479  -0.483  -0.576  0.00  0.00    +0.000 A 
ATOM      7  F1  UNL     1       0.754  -0.874   0.499  0.00  0.00    +0.000 F 
ATOM      8  C10 UNL     1       2.787  -1.014  -0.669  0.00  0.00    +0.000 A 
ATOM      9  C18 UNL     1       3.532  -0.613  -1.729  0.00  0.00    +0.000 A 
ATOM     10  C19 UNL     1       3.032   0.260  -2.650  0.00  0.00    +0.000 A 
ATOM     11  C20 UNL     1       1.728   0.785  -2.551  0.00  0.00    +0.000 A 
BRANCH  11  12
ATOM     12  C21 UNL     1       1.250   1.725  -3.562  0.00  0.00    +0.000 C 
ATOM     13  F2  UNL     1       2.298   1.868  -4.522  0.00  0.00    +0.000 F 
ATOM     14  F3  UNL     1       0.201   1.281  -4.334  0.00  0.00    +0.000 F 
ATOM     15  F4  UNL     1       1.105   3.032  -3.115  0.00  0.00    +0.000 F 
ENDBRANCH  11  12
BRANCH   8  16
ATOM     16  C11 UNL     1       3.208  -1.974   0.366  0.00  0.00    +0.000 C 
BRANCH  16  17
ATOM     17  S1  UNL     1       4.844  -2.559   0.289  0.00  0.00    +0.000 S 
ATOM     18  O3  UNL     1       5.019  -3.554   1.436  0.00  0.00    +0.000 OA
ATOM     19  O4  UNL     1       5.128  -3.262  -1.023  0.00  0.00    +0.000 OA
BRANCH  17  20
ATOM     20  C12 UNL     1       6.084  -1.364   0.498  0.00  0.00    +0.000 A 
ATOM     21  C13 UNL     1       6.901  -0.947  -0.514  0.00  0.00    +0.000 A 
ATOM     22  C14 UNL     1       7.890   0.020  -0.336  0.00  0.00    +0.000 A 
ATOM     23  C15 UNL     1       8.079   0.594   0.882  0.00  0.00    +0.000 A 
ATOM     24  C16 UNL     1       7.277   0.203   1.932  0.00  0.00    +0.000 A 
ATOM     25  C17 UNL     1       6.304  -0.753   1.744  0.00  0.00    +0.000 A 
ENDBRANCH  17  20
ENDBRANCH  16  17
ENDBRANCH   8  16
ENDBRANCH   2   5
BRANCH   1  29
ATOM     26  C3  UNL     1      -5.402   1.741   0.026  0.00  0.00    +0.000 A 
ATOM     27  C4  UNL     1      -4.540   2.483  -0.730  0.00  0.00    +0.000 A 
ATOM     28  C5  UNL     1      -3.226   2.032  -0.940  0.00  0.00    +0.000 A 
ATOM     29  C6  UNL     1      -2.771   0.856  -0.405  0.00  0.00    +0.000 A 
ATOM     30  C22 UNL     1      -3.655   0.113   0.359  0.00  0.00    +0.000 A 
ATOM     31  C23 UNL     1      -4.965   0.567   0.566  0.00  0.00    +0.000 A 
BRANCH  30  32
ATOM     32  C24 UNL     1      -3.236  -1.153   0.900  0.00  0.00    +0.000 A 
ATOM     33  C25 UNL     1      -2.736  -2.131   0.093  0.00  0.00    +0.000 A 
ATOM     34  C26 UNL     1      -2.320  -3.364   0.574  0.00  0.00    +0.000 A 
ATOM     35  C27 UNL     1      -2.424  -3.593   1.927  0.00  0.00    +0.000 A 
ATOM     36  C28 UNL     1      -2.919  -2.642   2.772  0.00  0.00    +0.000 A 
ATOM     37  C29 UNL     1      -3.330  -1.406   2.245  0.00  0.00    +0.000 A 
ENDBRANCH  30  32
BRANCH  26  38
ATOM     38  C2  UNL     1      -6.777   2.223   0.241  0.00  0.00    +0.000 C 
BRANCH  38  40
ATOM     39  N1  UNL     1      -8.081   3.622   1.821  0.00  0.00    +0.000 N 
ATOM     40  C1  UNL     1      -6.823   3.059   1.446  0.00  0.00    +0.000 C 
ATOM     41  O1  UNL     1      -5.779   3.257   2.108  0.00  0.00    +0.000 OA
ATOM     42  H1  UNL     1      -8.192   4.559   2.243  0.00  0.00    +0.000 HD
ATOM     43  H2  UNL     1      -8.936   3.051   1.659  0.00  0.00    +0.000 HD
ENDBRANCH  38  40
ENDBRANCH  26  38
ENDBRANCH   1  29
TORSDOF 9
