REMARK  Name = aganitha_data/bbio_mols_pdbqt/AGAN406.pdb
REMARK  20 active torsions:
REMARK  status: ('A' for Active; 'I' for Inactive)
REMARK    1  A    between atoms: C1_1  and  C2_2
REMARK    2  A    between atoms: C4_4  and  S1_5
REMARK    3  A    between atoms: S1_5  and  N1_8
REMARK    4  A    between atoms: N1_8  and  C5_9
REMARK    5  A    between atoms: N1_8  and  C6_10
REMARK    6  A    between atoms: C9_13  and  O3_14
REMARK    7  A    between atoms: O3_14  and  C10_15
REMARK    8  A    between atoms: C10_15  and  C11_16
REMARK    9  A    between atoms: C11_16  and  C12_17
REMARK   10  A    between atoms: C12_17  and  C13_18
REMARK   11  A    between atoms: C13_18  and  C14_19
REMARK   12  A    between atoms: C14_19  and  C15_20
REMARK   13  A    between atoms: C15_20  and  N2_21
REMARK   14  A    between atoms: N2_21  and  C16_22
REMARK   15  A    between atoms: N2_21  and  S2_23
REMARK   16  A    between atoms: S2_23  and  C17_26
REMARK   17  A    between atoms: C20_29  and  C21_30
REMARK   18  A    between atoms: C21_30  and  C22_31
REMARK   19  A    between atoms: C21_30  and  C23_32
REMARK   20  A    between atoms: C21_30  and  C24_33
REMARK                            x       y       z     vdW  Elec       q    Type
REMARK                         _______ _______ _______ _____ _____    ______ ____
ROOT
ATOM      1  C13 UNL     1      -0.420  -1.478  -0.691  0.00  0.00    +0.000 C 
ENDROOT
BRANCH   1   2
ATOM      2  C12 UNL     1      -0.493  -0.495  -1.798  0.00  0.00    +0.000 C 
BRANCH   2   3
ATOM      3  C11 UNL     1      -1.299   0.729  -1.571  0.00  0.00    +0.000 C 
BRANCH   3   4
ATOM      4  C10 UNL     1      -2.754   0.550  -1.483  0.00  0.00    +0.000 C 
BRANCH   4   5
ATOM      5  O3  UNL     1      -3.214  -0.306  -0.480  0.00  0.00    +0.000 OA
BRANCH   5  12
ATOM      6  C1  UNL     1      -4.300  -2.010   1.488  0.00  0.00    +0.000 C 
ATOM      7  C2  UNL     1      -5.191  -1.259   0.565  0.00  0.00    +0.000 A 
ATOM      8  C3  UNL     1      -6.576  -1.383   0.649  0.00  0.00    +0.000 A 
ATOM      9  C4  UNL     1      -7.407  -0.703  -0.214  0.00  0.00    +0.000 A 
ATOM     10  C7  UNL     1      -6.812   0.110  -1.168  0.00  0.00    +0.000 A 
ATOM     11  C8  UNL     1      -5.430   0.230  -1.243  0.00  0.00    +0.000 A 
ATOM     12  C9  UNL     1      -4.615  -0.454  -0.377  0.00  0.00    +0.000 A 
BRANCH   9  13
ATOM     13  S1  UNL     1      -9.156  -0.801  -0.155  0.00  0.00    +0.000 S 
ATOM     14  O1  UNL     1      -9.520  -2.111   0.487  0.00  0.00    +0.000 OA
ATOM     15  O2  UNL     1      -9.693  -0.843  -1.559  0.00  0.00    +0.000 OA
BRANCH  13  16
ATOM     16  N1  UNL     1      -9.909   0.458   0.690  0.00  0.00    +0.000 NA
ATOM     17  C5  UNL     1      -9.720   1.770   0.179  0.00  0.00    +0.000 C 
ATOM     18  C6  UNL     1      -9.928   0.364   2.109  0.00  0.00    +0.000 C 
ENDBRANCH  13  16
ENDBRANCH   9  13
ENDBRANCH   5  12
ENDBRANCH   4   5
ENDBRANCH   3   4
ENDBRANCH   2   3
ENDBRANCH   1   2
BRANCH   1  19
ATOM     19  C14 UNL     1       0.195  -1.006   0.572  0.00  0.00    +0.000 C 
BRANCH  19  20
ATOM     20  C15 UNL     1       1.646  -0.621   0.550  0.00  0.00    +0.000 C 
BRANCH  20  21
ATOM     21  N2  UNL     1       1.906   0.390  -0.399  0.00  0.00    +0.000 NA
ATOM     22  C16 UNL     1       1.843   1.733   0.189  0.00  0.00    +0.000 C 
BRANCH  21  23
ATOM     23  S2  UNL     1       3.169   0.213  -1.483  0.00  0.00    +0.000 S 
ATOM     24  O4  UNL     1       3.107   1.376  -2.468  0.00  0.00    +0.000 OA
ATOM     25  O5  UNL     1       2.910  -1.016  -2.347  0.00  0.00    +0.000 OA
BRANCH  23  26
ATOM     26  C17 UNL     1       4.770   0.156  -0.843  0.00  0.00    +0.000 A 
ATOM     27  C18 UNL     1       5.429  -0.960  -0.425  0.00  0.00    +0.000 A 
ATOM     28  C19 UNL     1       6.734  -0.981  -0.004  0.00  0.00    +0.000 A 
ATOM     29  C20 UNL     1       7.461   0.188   0.009  0.00  0.00    +0.000 A 
ATOM     30  C25 UNL     1       6.834   1.348  -0.400  0.00  0.00    +0.000 A 
ATOM     31  C26 UNL     1       5.529   1.344  -0.814  0.00  0.00    +0.000 A 
BRANCH  29  32
ATOM     32  C21 UNL     1       8.893   0.216   0.429  0.00  0.00    +0.000 C 
ATOM     33  C22 UNL     1       9.588  -0.834  -0.407  0.00  0.00    +0.000 C 
ATOM     34  C23 UNL     1       9.455   1.594   0.101  0.00  0.00    +0.000 C 
ATOM     35  C24 UNL     1       8.970  -0.064   1.896  0.00  0.00    +0.000 C 
ENDBRANCH  29  32
ENDBRANCH  23  26
ENDBRANCH  21  23
ENDBRANCH  20  21
ENDBRANCH  19  20
ENDBRANCH   1  19
TORSDOF 13
