REMARK  Name = aganitha_data/bbio_mols_pdbqt/AGAN-209.pdb
REMARK  7 active torsions:
REMARK  status: ('A' for Active; 'I' for Inactive)
REMARK    1  A    between atoms: C1_2  and  C2_3
REMARK    2  A    between atoms: C2_3  and  C3_4
REMARK    3  A    between atoms: C5_7  and  C6_9
REMARK    4  A    between atoms: N2_17  and  C14_18
REMARK    5  A    between atoms: C14_18  and  O3_19
REMARK    6  A    between atoms: C14_18  and  C30_35
REMARK    7  A    between atoms: O3_19  and  C15_20
REMARK                            x       y       z     vdW  Elec       q    Type
REMARK                         _______ _______ _______ _____ _____    ______ ____
ROOT
ATOM      1  C14 UNL     1       0.153   0.179   0.676  0.00  0.00    +0.000 C 
ENDROOT
BRANCH   1   9
ATOM      2  C3  UNL     1      -1.336   1.944   0.004  0.00  0.00    +0.000 C 
ATOM      3  C4  UNL     1      -2.722   2.161  -0.566  0.00  0.00    +0.000 C 
ATOM      4  N1  UNL     1      -3.582   1.012  -0.375  0.00  0.00    +0.000 N 
ATOM      5  C5  UNL     1      -4.864   1.125   0.213  0.00  0.00    +0.000 C 
ATOM      6  O2  UNL     1      -5.264   2.255   0.578  0.00  0.00    +0.000 OA
ATOM      7  C12 UNL     1      -3.133  -0.299  -0.791  0.00  0.00    +0.000 C 
ATOM      8  C13 UNL     1      -1.608  -0.201  -0.920  0.00  0.00    +0.000 C 
ATOM      9  N2  UNL     1      -1.139   0.546   0.203  0.00  0.00    +0.000 NA
BRANCH   5  10
ATOM     10  C6  UNL     1      -5.737  -0.016   0.412  0.00  0.00    +0.000 A 
ATOM     11  C7  UNL     1      -6.651  -0.430  -0.533  0.00  0.00    +0.000 A 
ATOM     12  C8  UNL     1      -7.469  -1.501  -0.346  0.00  0.00    +0.000 A 
ATOM     13  C9  UNL     1      -7.395  -2.210   0.826  0.00  0.00    +0.000 A 
ATOM     14  C10 UNL     1      -6.495  -1.819   1.781  0.00  0.00    +0.000 A 
ATOM     15  C11 UNL     1      -5.672  -0.738   1.586  0.00  0.00    +0.000 A 
ENDBRANCH   5  10
BRANCH   2  16
ATOM     16  C2  UNL     1      -1.301   2.707   1.331  0.00  0.00    +0.000 C 
BRANCH  16  18
ATOM     17  O1  UNL     1      -1.618   4.549  -0.186  0.00  0.00    +0.000 OA
ATOM     18  C1  UNL     1      -1.196   4.191   1.093  0.00  0.00    +0.000 C 
ENDBRANCH  16  18
ENDBRANCH   2  16
ENDBRANCH   1   9
BRANCH   1  19
ATOM     19  C30 UNL     1       1.275   1.026   0.200  0.00  0.00    +0.000 C 
ATOM     20  C31 UNL     1       1.686   2.279   0.877  0.00  0.00    +0.000 C 
ATOM     21  C32 UNL     1       1.121   2.289  -0.514  0.00  0.00    +0.000 C 
ENDBRANCH   1  19
BRANCH   1  22
ATOM     22  O3  UNL     1       0.393  -1.203   0.423  0.00  0.00    +0.000 OA
BRANCH  22  23
ATOM     23  C15 UNL     1       1.156  -1.555  -0.702  0.00  0.00    +0.000 A 
ATOM     24  C16 UNL     1       0.588  -1.788  -1.925  0.00  0.00    +0.000 A 
ATOM     25  C17 UNL     1       1.407  -2.130  -2.981  0.00  0.00    +0.000 A 
ATOM     26  C18 UNL     1       2.773  -2.240  -2.824  0.00  0.00    +0.000 A 
ATOM     27  C19 UNL     1       3.380  -2.007  -1.586  0.00  0.00    +0.000 A 
ATOM     28  C20 UNL     1       2.520  -1.664  -0.544  0.00  0.00    +0.000 A 
ATOM     29  C21 UNL     1       2.930  -1.375   0.835  0.00  0.00    +0.000 C 
ATOM     30  C22 UNL     1       4.127  -0.965   1.223  0.00  0.00    +0.000 C 
ATOM     31  C23 UNL     1       5.309  -0.703   0.396  0.00  0.00    +0.000 A 
ATOM     32  C24 UNL     1       6.153   0.201   1.048  0.00  0.00    +0.000 A 
ATOM     33  C25 UNL     1       7.320   0.570   0.421  0.00  0.00    +0.000 A 
ATOM     34  C26 UNL     1       7.635   0.054  -0.818  0.00  0.00    +0.000 A 
ATOM     35  C27 UNL     1       6.807  -0.838  -1.467  0.00  0.00    +0.000 A 
ATOM     36  C28 UNL     1       5.615  -1.224  -0.842  0.00  0.00    +0.000 A 
ATOM     37  C29 UNL     1       4.832  -2.181  -1.647  0.00  0.00    +0.000 C 
ENDBRANCH  22  23
ENDBRANCH   1  22
TORSDOF 7
