REMARK  Name = aganitha_data/bbio_mols_pdbqt/AMG650.pdb
REMARK  8 active torsions:
REMARK  status: ('A' for Active; 'I' for Inactive)
REMARK    1  A    between atoms: C1_1  and  C2_2
REMARK    2  A    between atoms: C11_17  and  C12_19
REMARK    3  A    between atoms: C13_20  and  N6_32
REMARK    4  A    between atoms: C15_22  and  N5_25
REMARK    5  A    between atoms: N5_25  and  S1_26
REMARK    6  A    between atoms: S1_26  and  C18_29
REMARK    7  A    between atoms: C18_29  and  C19_30
REMARK    8  A    between atoms: C19_30  and  O4_31
REMARK                            x       y       z     vdW  Elec       q    Type
REMARK                         _______ _______ _______ _____ _____    ______ ____
ROOT
ATOM      1  C12 UNL     1      -0.921   1.208   0.788  0.00  0.00    +0.000 A 
ATOM      2  C13 UNL     1      -2.053   0.458   0.833  0.00  0.00    +0.000 A 
ATOM      3  C14 UNL     1      -3.225   1.032   1.351  0.00  0.00    +0.000 A 
ATOM      4  C15 UNL     1      -3.280   2.317   1.818  0.00  0.00    +0.000 A 
ATOM      5  C16 UNL     1      -2.119   3.052   1.762  0.00  0.00    +0.000 A 
ATOM      6  C17 UNL     1      -0.964   2.535   1.267  0.00  0.00    +0.000 A 
ENDROOT
BRANCH   1  23
ATOM      7  C1  UNL     1       3.414  -2.780  -3.721  0.00  0.00    +0.000 C 
ATOM      8  C2  UNL     1       3.282  -1.741  -2.669  0.00  0.00    +0.000 A 
ATOM      9  C3  UNL     1       2.014  -1.449  -2.212  0.00  0.00    +0.000 A 
ATOM     10  C4  UNL     1       1.871  -0.494  -1.244  0.00  0.00    +0.000 A 
ATOM     11  N1  UNL     1       2.977   0.137  -0.763  0.00  0.00    +0.000 NA
ATOM     12  C5  UNL     1       4.210  -0.143  -1.202  0.00  0.00    +0.000 A 
ATOM     13  N2  UNL     1       4.324  -1.091  -2.159  0.00  0.00    +0.000 NA
ATOM     14  N3  UNL     1       5.321   0.546  -0.662  0.00  0.00    +0.000 N 
ATOM     15  C6  UNL     1       5.120   1.499   0.410  0.00  0.00    +0.000 C 
ATOM     16  C7  UNL     1       6.163   1.413   1.490  0.00  0.00    +0.000 C 
ATOM     17  C8  UNL     1       7.565   1.459   0.914  0.00  0.00    +0.000 C 
ATOM     18  C9  UNL     1       7.668   0.261  -0.017  0.00  0.00    +0.000 C 
ATOM     19  C10 UNL     1       6.675   0.345  -1.139  0.00  0.00    +0.000 C 
ATOM     20  F1  UNL     1       8.460   1.257   1.946  0.00  0.00    +0.000 F 
ATOM     21  F2  UNL     1       7.802   2.634   0.253  0.00  0.00    +0.000 F 
ATOM     22  N4  UNL     1       0.571  -0.164  -0.748  0.00  0.00    +0.000 N 
ATOM     23  C11 UNL     1       0.341   0.809   0.228  0.00  0.00    +0.000 C 
ATOM     24  O1  UNL     1       1.402   1.403   0.651  0.00  0.00    +0.000 OA
ATOM     25  H13 UNL     1      -0.218  -0.680  -1.140  0.00  0.00    +0.000 HD
ENDBRANCH   1  23
BRANCH   2  26
ATOM     26  N6  UNL     1      -2.106  -0.873   0.436  0.00  0.00    +0.000 N 
ATOM     27  C20 UNL     1      -1.308  -1.851   1.194  0.00  0.00    +0.000 C 
ATOM     28  C21 UNL     1      -1.259  -3.091   0.330  0.00  0.00    +0.000 C 
ATOM     29  C22 UNL     1      -2.699  -3.591   0.255  0.00  0.00    +0.000 C 
ATOM     30  C23 UNL     1      -3.000  -5.020   0.296  0.00  0.00    +0.000 C 
ATOM     31  C24 UNL     1      -3.184  -4.185   1.565  0.00  0.00    +0.000 C 
ATOM     32  C25 UNL     1      -3.584  -2.617  -0.472  0.00  0.00    +0.000 C 
ATOM     33  C26 UNL     1      -2.951  -1.271  -0.666  0.00  0.00    +0.000 C 
ENDBRANCH   2  26
BRANCH   4  34
ATOM     34  N5  UNL     1      -4.463   2.898   2.358  0.00  0.00    +0.000 N 
ATOM     35  H17 UNL     1      -4.360   3.409   3.285  0.00  0.00    +0.000 HD
BRANCH  34  36
ATOM     36  S1  UNL     1      -6.008   2.840   1.640  0.00  0.00    +0.000 S 
ATOM     37  O2  UNL     1      -7.022   3.512   2.546  0.00  0.00    +0.000 OA
ATOM     38  O3  UNL     1      -6.411   1.409   1.402  0.00  0.00    +0.000 OA
BRANCH  36  39
ATOM     39  C18 UNL     1      -6.002   3.652   0.076  0.00  0.00    +0.000 C 
BRANCH  39  40
ATOM     40  C19 UNL     1      -5.022   3.013  -0.864  0.00  0.00    +0.000 C 
BRANCH  40  41
ATOM     41  O4  UNL     1      -5.054   3.664  -2.107  0.00  0.00    +0.000 OA
ATOM     42  H22 UNL     1      -5.051   4.641  -2.012  0.00  0.00    +0.000 HD
ENDBRANCH  40  41
ENDBRANCH  39  40
ENDBRANCH  36  39
ENDBRANCH  34  36
ENDBRANCH   4  34
TORSDOF 7
