REMARK  Name = aganitha_data/bbio_mols_pdbqt/BB_30.pdb
REMARK  9 active torsions:
REMARK  status: ('A' for Active; 'I' for Inactive)
REMARK    1  A    between atoms: C1_1  and  N1_2
REMARK    2  A    between atoms: N1_2  and  C10_12
REMARK    3  A    between atoms: C2_3  and  C3_4
REMARK    4  A    between atoms: C6_7  and  C7_8
REMARK    5  A    between atoms: C13_15  and  C14_16
REMARK    6  A    between atoms: C16_21  and  N2_22
REMARK    7  A    between atoms: N2_22  and  S1_23
REMARK    8  A    between atoms: S1_23  and  C17_24
REMARK    9  A    between atoms: C20_27  and  C21_28
REMARK                            x       y       z     vdW  Elec       q    Type
REMARK                         _______ _______ _______ _____ _____    ______ ____
ROOT
ATOM      1  C10 UNL     1       2.909  -1.530  -0.378  0.00  0.00    +0.000 A 
ATOM      2  C11 UNL     1       3.741  -2.608  -0.725  0.00  0.00    +0.000 A 
ATOM      3  C12 UNL     1       3.304  -3.916  -0.579  0.00  0.00    +0.000 A 
ATOM      4  C13 UNL     1       2.055  -4.189  -0.094  0.00  0.00    +0.000 A 
ATOM      5  C15 UNL     1       1.236  -3.132   0.238  0.00  0.00    +0.000 A 
ATOM      6  C16 UNL     1       1.645  -1.788   0.098  0.00  0.00    +0.000 A 
ENDROOT
BRANCH   1   8
ATOM      7  C1  UNL     1       2.706   1.019  -0.453  0.00  0.00    +0.000 C 
ATOM      8  N1  UNL     1       3.448  -0.221  -0.355  0.00  0.00    +0.000 N 
ATOM      9  C2  UNL     1       4.869  -0.114  -0.055  0.00  0.00    +0.000 C 
ATOM     10  O1  UNL     1       5.494  -1.126   0.372  0.00  0.00    +0.000 OA
BRANCH   9  11
ATOM     11  C3  UNL     1       5.654   1.094  -0.196  0.00  0.00    +0.000 A 
ATOM     12  C4  UNL     1       6.757   1.234   0.665  0.00  0.00    +0.000 A 
ATOM     13  C5  UNL     1       7.565   2.347   0.654  0.00  0.00    +0.000 A 
ATOM     14  C6  UNL     1       7.338   3.398  -0.206  0.00  0.00    +0.000 A 
ATOM     15  C7  UNL     1       8.193   4.631  -0.161  0.00  0.00    +0.000 C 
ATOM     16  C8  UNL     1       6.268   3.268  -1.054  0.00  0.00    +0.000 A 
ATOM     17  C9  UNL     1       5.438   2.139  -1.055  0.00  0.00    +0.000 A 
ENDBRANCH   9  11
ENDBRANCH   1   8
BRANCH   4  18
ATOM     18  C14 UNL     1       1.585  -5.595   0.152  0.00  0.00    +0.000 C 
ATOM     19  F1  UNL     1       2.325  -6.484  -0.550  0.00  0.00    +0.000 F 
ATOM     20  F2  UNL     1       0.255  -5.766  -0.113  0.00  0.00    +0.000 F 
ATOM     21  F3  UNL     1       1.848  -5.890   1.516  0.00  0.00    +0.000 F 
ENDBRANCH   4  18
BRANCH   6  22
ATOM     22  N2  UNL     1       0.729  -0.764   0.340  0.00  0.00    +0.000 N 
ATOM     23  H14 UNL     1       0.591   0.039  -0.347  0.00  0.00    +0.000 HD
BRANCH  22  24
ATOM     24  S1  UNL     1      -0.431  -0.685   1.628  0.00  0.00    +0.000 S 
ATOM     25  O2  UNL     1      -0.348  -1.875   2.538  0.00  0.00    +0.000 OA
ATOM     26  O3  UNL     1      -0.115   0.526   2.447  0.00  0.00    +0.000 OA
BRANCH  24  27
ATOM     27  C17 UNL     1      -1.998  -0.527   0.871  0.00  0.00    +0.000 A 
ATOM     28  C18 UNL     1      -2.659  -1.573   0.299  0.00  0.00    +0.000 A 
ATOM     29  C19 UNL     1      -3.876  -1.365  -0.363  0.00  0.00    +0.000 A 
ATOM     30  C20 UNL     1      -4.421  -0.095  -0.434  0.00  0.00    +0.000 A 
ATOM     31  C27 UNL     1      -3.759   0.948   0.144  0.00  0.00    +0.000 A 
ATOM     32  C28 UNL     1      -2.543   0.733   0.799  0.00  0.00    +0.000 A 
BRANCH  30  33
ATOM     33  C21 UNL     1      -5.679   0.027  -1.185  0.00  0.00    +0.000 C 
ATOM     34  C22 UNL     1      -6.138   1.379  -1.525  0.00  0.00    +0.000 C 
ATOM     35  C23 UNL     1      -7.674   1.390  -1.645  0.00  0.00    +0.000 C 
ATOM     36  C24 UNL     1      -8.234   1.275  -0.228  0.00  0.00    +0.000 C 
ATOM     37  C25 UNL     1      -7.278   0.437   0.605  0.00  0.00    +0.000 C 
ATOM     38  C26 UNL     1      -6.794  -0.660  -0.347  0.00  0.00    +0.000 C 
ENDBRANCH  30  33
ENDBRANCH  24  27
ENDBRANCH  22  24
ENDBRANCH   6  22
TORSDOF 7
