REMARK  Name = aganitha_data/bbio_mols_pdbqt/BB_38.pdb
REMARK  9 active torsions:
REMARK  status: ('A' for Active; 'I' for Inactive)
REMARK    1  A    between atoms: C1_1  and  C17_22
REMARK    2  A    between atoms: C4_4  and  N1_15
REMARK    3  A    between atoms: C6_6  and  C7_7
REMARK    4  A    between atoms: N1_15  and  S1_16
REMARK    5  A    between atoms: S1_16  and  C15_17
REMARK    6  A    between atoms: C15_17  and  C16_18
REMARK    7  A    between atoms: C16_18  and  O1_19
REMARK    8  A    between atoms: N2_23  and  C18_24
REMARK    9  A    between atoms: C20_26  and  C27_38
REMARK                            x       y       z     vdW  Elec       q    Type
REMARK                         _______ _______ _______ _____ _____    ______ ____
ROOT
ATOM      1  C1  UNL     1      -0.777   1.769   0.382  0.00  0.00    +0.000 A 
ATOM      2  C2  UNL     1      -0.662   2.887  -0.448  0.00  0.00    +0.000 A 
ATOM      3  C3  UNL     1      -1.798   3.392  -1.016  0.00  0.00    +0.000 A 
ATOM      4  C4  UNL     1      -3.079   2.842  -0.806  0.00  0.00    +0.000 A 
ATOM      5  C5  UNL     1      -3.118   1.755   0.014  0.00  0.00    +0.000 A 
ATOM      6  C6  UNL     1      -1.988   1.192   0.625  0.00  0.00    +0.000 A 
ENDROOT
BRANCH   6   7
ATOM      7  C7  UNL     1      -2.108   0.009   1.503  0.00  0.00    +0.000 C 
ATOM      8  C8  UNL     1      -3.519  -0.323   1.913  0.00  0.00    +0.000 C 
ATOM      9  C9  UNL     1      -4.107  -1.333   0.978  0.00  0.00    +0.000 C 
ATOM     10  C10 UNL     1      -3.385  -2.669   1.070  0.00  0.00    +0.000 C 
ATOM     11  C11 UNL     1      -1.935  -2.482   1.399  0.00  0.00    +0.000 C 
ATOM     12  C12 UNL     1      -1.471  -1.177   0.777  0.00  0.00    +0.000 C 
ATOM     13  C13 UNL     1      -4.062  -3.873   1.574  0.00  0.00    +0.000 C 
ATOM     14  C14 UNL     1      -3.836  -3.688   0.068  0.00  0.00    +0.000 C 
ENDBRANCH   6   7
BRANCH   1  15
ATOM     15  C17 UNL     1       0.449   1.199   0.983  0.00  0.00    +0.000 C 
ATOM     16  N2  UNL     1       1.500   0.731   0.169  0.00  0.00    +0.000 N 
ATOM     17  O4  UNL     1       0.520   1.152   2.228  0.00  0.00    +0.000 OA
ATOM     18  H23 UNL     1       1.332   0.822  -0.873  0.00  0.00    +0.000 HD
BRANCH  16  19
ATOM     19  C18 UNL     1       2.708   0.165   0.608  0.00  0.00    +0.000 A 
ATOM     20  C19 UNL     1       2.998  -0.035   1.930  0.00  0.00    +0.000 A 
ATOM     21  C20 UNL     1       4.247  -0.600   2.224  0.00  0.00    +0.000 A 
ATOM     22  N3  UNL     1       5.103  -0.924   1.245  0.00  0.00    +0.000 NA
ATOM     23  C21 UNL     1       4.824  -0.729  -0.055  0.00  0.00    +0.000 A 
ATOM     24  N4  UNL     1       3.636  -0.192  -0.334  0.00  0.00    +0.000 NA
ATOM     25  N5  UNL     1       5.767  -1.083  -1.050  0.00  0.00    +0.000 N 
ATOM     26  C22 UNL     1       5.569  -0.831  -2.459  0.00  0.00    +0.000 C 
ATOM     27  C23 UNL     1       6.643   0.107  -2.978  0.00  0.00    +0.000 C 
ATOM     28  C24 UNL     1       7.962  -0.117  -2.313  0.00  0.00    +0.000 C 
ATOM     29  C25 UNL     1       8.073  -1.499  -1.709  0.00  0.00    +0.000 C 
ATOM     30  C26 UNL     1       6.996  -1.728  -0.654  0.00  0.00    +0.000 C 
ATOM     31  F1  UNL     1       8.184   0.865  -1.362  0.00  0.00    +0.000 F 
ATOM     32  F2  UNL     1       8.958  -0.017  -3.264  0.00  0.00    +0.000 F 
ATOM     33  C27 UNL     1       4.578  -0.825   3.667  0.00  0.00    +0.000 C 
ENDBRANCH  16  19
ENDBRANCH   1  15
BRANCH   4  34
ATOM     34  N1  UNL     1      -4.153   3.468  -1.475  0.00  0.00    +0.000 N 
ATOM     35  H17 UNL     1      -4.127   4.549  -1.364  0.00  0.00    +0.000 HD
BRANCH  34  36
ATOM     36  S1  UNL     1      -5.402   2.775  -2.374  0.00  0.00    +0.000 S 
ATOM     37  O2  UNL     1      -4.871   1.956  -3.549  0.00  0.00    +0.000 OA
ATOM     38  O3  UNL     1      -6.276   3.870  -2.972  0.00  0.00    +0.000 OA
BRANCH  36  39
ATOM     39  C15 UNL     1      -6.428   1.720  -1.434  0.00  0.00    +0.000 C 
BRANCH  39  40
ATOM     40  C16 UNL     1      -7.112   2.423  -0.283  0.00  0.00    +0.000 C 
BRANCH  40  41
ATOM     41  O1  UNL     1      -6.171   2.952   0.558  0.00  0.00    +0.000 OA
ATOM     42  H22 UNL     1      -5.881   3.864   0.265  0.00  0.00    +0.000 HD
ENDBRANCH  40  41
ENDBRANCH  39  40
ENDBRANCH  36  39
ENDBRANCH  34  36
ENDBRANCH   4  34
TORSDOF 8
