REMARK  Name = aganitha_data/bbio_mols_pdbqt/BB_35.pdb
REMARK  9 active torsions:
REMARK  status: ('A' for Active; 'I' for Inactive)
REMARK    1  A    between atoms: C1_1  and  N4_31
REMARK    2  A    between atoms: C2_2  and  C9_14
REMARK    3  A    between atoms: C5_5  and  N1_7
REMARK    4  A    between atoms: N1_7  and  S1_8
REMARK    5  A    between atoms: S1_8  and  C7_9
REMARK    6  A    between atoms: C7_9  and  C8_10
REMARK    7  A    between atoms: C8_10  and  O1_11
REMARK    8  A    between atoms: N2_15  and  C10_16
REMARK    9  A    between atoms: C14_20  and  N3_22
REMARK                            x       y       z     vdW  Elec       q    Type
REMARK                         _______ _______ _______ _____ _____    ______ ____
ROOT
ATOM      1  C1  UNL     1      -1.894  -0.393  -0.093  0.00  0.00    +0.000 A 
ATOM      2  C2  UNL     1      -1.047   0.280  -0.897  0.00  0.00    +0.000 A 
ATOM      3  C3  UNL     1      -1.544   0.786  -2.116  0.00  0.00    +0.000 A 
ATOM      4  C4  UNL     1      -2.848   0.611  -2.492  0.00  0.00    +0.000 A 
ATOM      5  C5  UNL     1      -3.725  -0.071  -1.687  0.00  0.00    +0.000 A 
ATOM      6  C6  UNL     1      -3.239  -0.558  -0.510  0.00  0.00    +0.000 A 
ENDROOT
BRANCH   1   7
ATOM      7  N4  UNL     1      -1.537  -0.966   1.143  0.00  0.00    +0.000 N 
ATOM      8  C21 UNL     1      -2.061  -0.417   2.361  0.00  0.00    +0.000 C 
ATOM      9  C22 UNL     1      -2.930  -1.412   3.093  0.00  0.00    +0.000 C 
ATOM     10  C23 UNL     1      -2.587  -2.827   2.755  0.00  0.00    +0.000 C 
ATOM     11  C24 UNL     1      -1.208  -3.039   2.264  0.00  0.00    +0.000 C 
ATOM     12  C25 UNL     1      -0.700  -2.123   1.209  0.00  0.00    +0.000 C 
ATOM     13  C26 UNL     1      -3.682  -3.669   2.071  0.00  0.00    +0.000 C 
ATOM     14  C27 UNL     1      -3.276  -3.907   3.476  0.00  0.00    +0.000 C 
ENDBRANCH   1   7
BRANCH   2  15
ATOM     15  C9  UNL     1       0.334   0.560  -0.605  0.00  0.00    +0.000 C 
ATOM     16  N2  UNL     1       1.000   0.643   0.615  0.00  0.00    +0.000 N 
ATOM     17  O4  UNL     1       1.075   0.771  -1.638  0.00  0.00    +0.000 OA
ATOM     18  H10 UNL     1       0.408   0.500   1.468  0.00  0.00    +0.000 HD
BRANCH  16  19
ATOM     19  C10 UNL     1       2.367   0.907   0.870  0.00  0.00    +0.000 A 
ATOM     20  C11 UNL     1       2.753   1.232   2.174  0.00  0.00    +0.000 A 
ATOM     21  C12 UNL     1       4.057   1.481   2.518  0.00  0.00    +0.000 A 
ATOM     22  C13 UNL     1       5.058   1.421   1.587  0.00  0.00    +0.000 A 
ATOM     23  C14 UNL     1       4.726   1.105   0.287  0.00  0.00    +0.000 A 
ATOM     24  C15 UNL     1       3.382   0.854  -0.043  0.00  0.00    +0.000 A 
BRANCH  23  25
ATOM     25  N3  UNL     1       5.717   1.035  -0.729  0.00  0.00    +0.000 N 
ATOM     26  C16 UNL     1       5.531   0.331  -1.984  0.00  0.00    +0.000 C 
ATOM     27  C17 UNL     1       6.757  -0.565  -2.227  0.00  0.00    +0.000 C 
ATOM     28  C18 UNL     1       7.579  -0.691  -0.952  0.00  0.00    +0.000 C 
ATOM     29  C19 UNL     1       8.141   0.703  -0.696  0.00  0.00    +0.000 C 
ATOM     30  C20 UNL     1       6.997   1.693  -0.569  0.00  0.00    +0.000 C 
ATOM     31  F1  UNL     1       8.576  -1.593  -1.146  0.00  0.00    +0.000 F 
ATOM     32  F2  UNL     1       6.744  -1.024   0.100  0.00  0.00    +0.000 F 
ENDBRANCH  23  25
ENDBRANCH  16  19
ENDBRANCH   2  15
BRANCH   5  33
ATOM     33  N1  UNL     1      -5.082  -0.268  -2.062  0.00  0.00    +0.000 N 
ATOM     34  H4  UNL     1      -5.480  -1.225  -1.939  0.00  0.00    +0.000 HD
BRANCH  33  35
ATOM     35  S1  UNL     1      -6.040   1.008  -2.693  0.00  0.00    +0.000 S 
ATOM     36  O2  UNL     1      -7.415   0.502  -2.986  0.00  0.00    +0.000 OA
ATOM     37  O3  UNL     1      -5.444   1.504  -3.967  0.00  0.00    +0.000 OA
BRANCH  35  38
ATOM     38  C7  UNL     1      -6.150   2.270  -1.448  0.00  0.00    +0.000 C 
BRANCH  38  39
ATOM     39  C8  UNL     1      -6.992   3.405  -1.987  0.00  0.00    +0.000 C 
BRANCH  39  40
ATOM     40  O1  UNL     1      -8.254   2.954  -2.298  0.00  0.00    +0.000 OA
ATOM     41  H9  UNL     1      -8.848   3.729  -2.516  0.00  0.00    +0.000 HD
ENDBRANCH  39  40
ENDBRANCH  38  39
ENDBRANCH  35  38
ENDBRANCH  33  35
ENDBRANCH   5  33
TORSDOF 9
