REMARK  Name = aganitha_data/bbio_mols_pdbqt/BB_36.pdb
REMARK  14 active torsions:
REMARK  status: ('A' for Active; 'I' for Inactive)
REMARK    1  A    between atoms: C2_2  and  C9_13
REMARK    2  A    between atoms: C4_5  and  N3_7
REMARK    3  A    between atoms: N3_7  and  C5_8
REMARK    4  A    between atoms: C5_8  and  C6_9
REMARK    5  A    between atoms: C5_8  and  C7_11
REMARK    6  A    between atoms: C5_8  and  C8_12
REMARK    7  A    between atoms: C6_9  and  O1_10
REMARK    8  A    between atoms: N4_14  and  C10_15
REMARK    9  A    between atoms: C14_19  and  S1_21
REMARK   10  A    between atoms: S1_21  and  N6_22
REMARK   11  A    between atoms: N6_22  and  C15_23
REMARK   12  A    between atoms: C15_23  and  C16_24
REMARK   13  A    between atoms: C15_23  and  C17_25
REMARK   14  A    between atoms: C15_23  and  C18_26
REMARK                            x       y       z     vdW  Elec       q    Type
REMARK                         _______ _______ _______ _____ _____    ______ ____
ROOT
ATOM      1  C1  UNL     1      -2.134   0.927   0.036  0.00  0.00    +0.000 A 
ATOM      2  C2  UNL     1      -1.126   1.778   0.362  0.00  0.00    +0.000 A 
ATOM      3  N1  UNL     1      -1.435   3.109   0.493  0.00  0.00    +0.000 NA
ATOM      4  C3  UNL     1      -2.693   3.541   0.303  0.00  0.00    +0.000 A 
ATOM      5  C4  UNL     1      -3.721   2.683  -0.028  0.00  0.00    +0.000 A 
ATOM      6  N2  UNL     1      -3.423   1.391  -0.156  0.00  0.00    +0.000 NA
ATOM      7  N7  UNL     1      -1.894  -0.465  -0.083  0.00  0.00    +0.000 N 
ATOM      8  C19 UNL     1      -1.599  -1.264   1.108  0.00  0.00    +0.000 C 
ATOM      9  C20 UNL     1      -2.820  -2.223   1.182  0.00  0.00    +0.000 C 
ATOM     10  C21 UNL     1      -2.610  -3.162   0.000  0.00  0.00    +0.000 C 
ATOM     11  C22 UNL     1      -2.809  -2.397  -1.262  0.00  0.00    +0.000 C 
ATOM     12  C23 UNL     1      -1.960  -1.142  -1.370  0.00  0.00    +0.000 C 
ATOM     13  C24 UNL     1      -1.456  -4.106   0.152  0.00  0.00    +0.000 C 
ATOM     14  C25 UNL     1      -2.879  -4.597   0.120  0.00  0.00    +0.000 C 
ENDROOT
BRANCH   2  15
ATOM     15  C9  UNL     1       0.250   1.340   0.540  0.00  0.00    +0.000 C 
ATOM     16  N4  UNL     1       1.268   2.281   0.956  0.00  0.00    +0.000 N 
ATOM     17  O4  UNL     1       0.675   0.179   0.364  0.00  0.00    +0.000 OA
ATOM     18  H12 UNL     1       0.987   3.255   1.119  0.00  0.00    +0.000 HD
BRANCH  16  19
ATOM     19  C10 UNL     1       2.620   1.896   1.142  0.00  0.00    +0.000 A 
ATOM     20  C11 UNL     1       3.549   2.833   1.537  0.00  0.00    +0.000 A 
ATOM     21  C12 UNL     1       4.874   2.523   1.735  0.00  0.00    +0.000 A 
ATOM     22  C13 UNL     1       5.304   1.204   1.530  0.00  0.00    +0.000 A 
ATOM     23  C14 UNL     1       4.374   0.290   1.138  0.00  0.00    +0.000 A 
ATOM     24  N5  UNL     1       3.059   0.653   0.954  0.00  0.00    +0.000 NA
BRANCH  23  25
ATOM     25  S1  UNL     1       4.750  -1.376   0.931  0.00  0.00    +0.000 S 
ATOM     26  O2  UNL     1       3.882  -1.876  -0.219  0.00  0.00    +0.000 OA
ATOM     27  O3  UNL     1       4.155  -2.113   2.148  0.00  0.00    +0.000 OA
BRANCH  25  28
ATOM     28  N6  UNL     1       6.352  -1.796   0.762  0.00  0.00    +0.000 NA
ATOM     29  H16 UNL     1       6.874  -1.642   1.648  0.00  0.00    +0.000 HD
BRANCH  28  30
ATOM     30  C15 UNL     1       7.119  -1.365  -0.327  0.00  0.00    +0.000 C 
ATOM     31  C16 UNL     1       6.461  -1.706  -1.673  0.00  0.00    +0.000 C 
ATOM     32  C17 UNL     1       8.378  -2.309  -0.343  0.00  0.00    +0.000 C 
ATOM     33  C18 UNL     1       7.701  -0.005  -0.374  0.00  0.00    +0.000 C 
ENDBRANCH  28  30
ENDBRANCH  25  28
ENDBRANCH  23  25
ENDBRANCH  16  19
ENDBRANCH   2  15
BRANCH   5  34
ATOM     34  N3  UNL     1      -5.031   3.206  -0.214  0.00  0.00    +0.000 N 
ATOM     35  H2  UNL     1      -5.230   4.240  -0.100  0.00  0.00    +0.000 HD
BRANCH  34  36
ATOM     36  C5  UNL     1      -6.145   2.362  -0.566  0.00  0.00    +0.000 C 
ATOM     37  C7  UNL     1      -6.342   1.373   0.564  0.00  0.00    +0.000 C 
ATOM     38  C8  UNL     1      -7.425   3.163  -0.679  0.00  0.00    +0.000 C 
BRANCH  36  39
ATOM     39  C6  UNL     1      -5.898   1.691  -1.876  0.00  0.00    +0.000 C 
BRANCH  39  40
ATOM     40  O1  UNL     1      -6.996   0.884  -2.180  0.00  0.00    +0.000 OA
ATOM     41  H5  UNL     1      -7.805   1.407  -2.290  0.00  0.00    +0.000 HD
ENDBRANCH  39  40
ENDBRANCH  36  39
ENDBRANCH  34  36
ENDBRANCH   5  34
TORSDOF 9
