REMARK  Name = aganitha_data/bbio_mols_pdbqt/BB_39.pdb
REMARK  8 active torsions:
REMARK  status: ('A' for Active; 'I' for Inactive)
REMARK    1  A    between atoms: C4_4  and  N2_15
REMARK    2  A    between atoms: C6_6  and  N1_7
REMARK    3  A    between atoms: N2_15  and  S1_16
REMARK    4  A    between atoms: S1_16  and  C14_17
REMARK    5  A    between atoms: C14_17  and  C15_18
REMARK    6  A    between atoms: C15_18  and  O1_19
REMARK    7  A    between atoms: N5_26  and  C18_27
REMARK    8  A    between atoms: C22_31  and  C24_33
REMARK                            x       y       z     vdW  Elec       q    Type
REMARK                         _______ _______ _______ _____ _____    ______ ____
ROOT
ATOM      1  C1  UNL     1       0.509  -1.436  -0.772  0.00  0.00    +0.000 A 
ATOM      2  C2  UNL     1       1.482  -2.388  -1.116  0.00  0.00    +0.000 A 
ATOM      3  C3  UNL     1       2.760  -1.974  -1.406  0.00  0.00    +0.000 A 
ATOM      4  C4  UNL     1       3.066  -0.653  -1.355  0.00  0.00    +0.000 A 
ATOM      5  C5  UNL     1       2.107   0.262  -1.016  0.00  0.00    +0.000 A 
ATOM      6  C6  UNL     1       0.774  -0.123  -0.709  0.00  0.00    +0.000 A 
ATOM      7  N3  UNL     1       1.241  -3.709  -1.136  0.00  0.00    +0.000 NA
ATOM      8  C16 UNL     1       0.026  -4.164  -0.817  0.00  0.00    +0.000 A 
ATOM      9  N4  UNL     1      -0.896  -3.278  -0.495  0.00  0.00    +0.000 NA
ATOM     10  C17 UNL     1      -0.743  -1.913  -0.450  0.00  0.00    +0.000 A 
ATOM     11  N5  UNL     1      -1.888  -1.140  -0.236  0.00  0.00    +0.000 N 
ATOM     12  H22 UNL     1      -2.024  -0.188  -0.445  0.00  0.00    +0.000 HD
ENDROOT
BRANCH   6  13
ATOM     13  N1  UNL     1      -0.107   0.905  -0.352  0.00  0.00    +0.000 N 
ATOM     14  C7  UNL     1      -0.711   1.719  -1.391  0.00  0.00    +0.000 C 
ATOM     15  C8  UNL     1      -1.694   2.649  -0.711  0.00  0.00    +0.000 C 
ATOM     16  C9  UNL     1      -0.876   3.569   0.191  0.00  0.00    +0.000 C 
ATOM     17  C10 UNL     1      -0.101   2.781   1.214  0.00  0.00    +0.000 C 
ATOM     18  C11 UNL     1      -0.340   1.270   1.023  0.00  0.00    +0.000 C 
ATOM     19  C12 UNL     1      -0.166   4.667  -0.516  0.00  0.00    +0.000 C 
ATOM     20  C13 UNL     1      -1.296   4.953   0.404  0.00  0.00    +0.000 C 
ENDBRANCH   6  13
BRANCH  11  21
ATOM     21  C18 UNL     1      -3.062  -1.787   0.285  0.00  0.00    +0.000 A 
ATOM     22  C19 UNL     1      -3.025  -2.883   1.110  0.00  0.00    +0.000 A 
ATOM     23  C20 UNL     1      -4.201  -3.476   1.574  0.00  0.00    +0.000 A 
ATOM     24  C21 UNL     1      -5.429  -2.975   1.217  0.00  0.00    +0.000 A 
ATOM     25  C22 UNL     1      -5.487  -1.867   0.385  0.00  0.00    +0.000 A 
ATOM     26  C23 UNL     1      -4.317  -1.306  -0.057  0.00  0.00    +0.000 A 
ATOM     27  C24 UNL     1      -6.827  -1.310  -0.013  0.00  0.00    +0.000 C 
ENDBRANCH  11  21
BRANCH   4  28
ATOM     28  N2  UNL     1       4.397  -0.219  -1.657  0.00  0.00    +0.000 N 
ATOM     29  H15 UNL     1       4.533   0.605  -2.280  0.00  0.00    +0.000 HD
BRANCH  28  30
ATOM     30  S1  UNL     1       5.763  -1.021  -1.021  0.00  0.00    +0.000 S 
ATOM     31  O2  UNL     1       5.813  -2.482  -1.386  0.00  0.00    +0.000 OA
ATOM     32  O3  UNL     1       7.022  -0.372  -1.518  0.00  0.00    +0.000 OA
BRANCH  30  33
ATOM     33  C14 UNL     1       5.784  -0.952   0.768  0.00  0.00    +0.000 C 
BRANCH  33  34
ATOM     34  C15 UNL     1       5.823   0.515   1.204  0.00  0.00    +0.000 C 
BRANCH  34  35
ATOM     35  O1  UNL     1       4.698   1.171   0.720  0.00  0.00    +0.000 OA
ATOM     36  H20 UNL     1       4.893   2.138   0.720  0.00  0.00    +0.000 HD
ENDBRANCH  34  35
ENDBRANCH  33  34
ENDBRANCH  30  33
ENDBRANCH  28  30
ENDBRANCH   4  28
TORSDOF 7
