REMARK  Name = aganitha_data/bbio_mols_pdbqt/BB_43.pdb
REMARK  7 active torsions:
REMARK  status: ('A' for Active; 'I' for Inactive)
REMARK    1  A    between atoms: C1_1  and  C16_22
REMARK    2  A    between atoms: C4_4  and  N2_15
REMARK    3  A    between atoms: C6_6  and  N1_7
REMARK    4  A    between atoms: N2_15  and  S1_16
REMARK    5  A    between atoms: S1_16  and  C14_17
REMARK    6  A    between atoms: C14_17  and  C15_18
REMARK    7  A    between atoms: C15_18  and  O1_19
REMARK                            x       y       z     vdW  Elec       q    Type
REMARK                         _______ _______ _______ _____ _____    ______ ____
ROOT
ATOM      1  C1  UNL     1      -0.233   0.766   0.032  0.00  0.00    +0.000 A 
ATOM      2  C2  UNL     1      -0.275   2.139   0.321  0.00  0.00    +0.000 A 
ATOM      3  C3  UNL     1      -1.373   2.749   0.836  0.00  0.00    +0.000 A 
ATOM      4  C4  UNL     1      -2.489   2.008   1.087  0.00  0.00    +0.000 A 
ATOM      5  C5  UNL     1      -2.462   0.645   0.806  0.00  0.00    +0.000 A 
ATOM      6  C6  UNL     1      -1.356   0.016   0.285  0.00  0.00    +0.000 A 
ENDROOT
BRANCH   1   7
ATOM      7  C16 UNL     1       0.979   0.215  -0.539  0.00  0.00    +0.000 A 
ATOM      8  C17 UNL     1       2.199   0.455   0.038  0.00  0.00    +0.000 A 
ATOM      9  C18 UNL     1       3.381  -0.046  -0.500  0.00  0.00    +0.000 A 
ATOM     10  N3  UNL     1       3.263  -0.778  -1.613  0.00  0.00    +0.000 NA
ATOM     11  C19 UNL     1       2.101  -1.053  -2.231  0.00  0.00    +0.000 A 
ATOM     12  C20 UNL     1       0.917  -0.540  -1.678  0.00  0.00    +0.000 A 
ATOM     13  N4  UNL     1       4.640   0.205   0.099  0.00  0.00    +0.000 N 
ATOM     14  C21 UNL     1       4.697   0.999   1.295  0.00  0.00    +0.000 C 
ATOM     15  C22 UNL     1       6.110   1.146   1.815  0.00  0.00    +0.000 C 
ATOM     16  C23 UNL     1       7.120   1.425   0.749  0.00  0.00    +0.000 C 
ATOM     17  C24 UNL     1       6.843   0.797  -0.575  0.00  0.00    +0.000 C 
ATOM     18  C25 UNL     1       5.840  -0.319  -0.474  0.00  0.00    +0.000 C 
ATOM     19  F1  UNL     1       8.341   0.932   1.216  0.00  0.00    +0.000 F 
ATOM     20  F2  UNL     1       7.333   2.800   0.590  0.00  0.00    +0.000 F 
ENDBRANCH   1   7
BRANCH   6  21
ATOM     21  N1  UNL     1      -1.431  -1.373   0.061  0.00  0.00    +0.000 N 
ATOM     22  C7  UNL     1      -0.638  -2.307   0.784  0.00  0.00    +0.000 C 
ATOM     23  C8  UNL     1      -1.194  -3.703   0.826  0.00  0.00    +0.000 C 
ATOM     24  C9  UNL     1      -2.000  -4.099  -0.355  0.00  0.00    +0.000 C 
ATOM     25  C10 UNL     1      -1.885  -3.113  -1.495  0.00  0.00    +0.000 C 
ATOM     26  C11 UNL     1      -2.396  -1.785  -0.975  0.00  0.00    +0.000 C 
ATOM     27  C12 UNL     1      -3.259  -4.860  -0.154  0.00  0.00    +0.000 C 
ATOM     28  C13 UNL     1      -2.100  -5.530  -0.753  0.00  0.00    +0.000 C 
ENDBRANCH   6  21
BRANCH   4  29
ATOM     29  N2  UNL     1      -3.648   2.614   1.622  0.00  0.00    +0.000 N 
ATOM     30  H16 UNL     1      -4.178   2.162   2.413  0.00  0.00    +0.000 HD
BRANCH  29  31
ATOM     31  S1  UNL     1      -4.240   4.112   1.005  0.00  0.00    +0.000 S 
ATOM     32  O2  UNL     1      -5.481   4.530   1.721  0.00  0.00    +0.000 OA
ATOM     33  O3  UNL     1      -3.206   5.195   1.136  0.00  0.00    +0.000 OA
BRANCH  31  34
ATOM     34  C14 UNL     1      -4.678   3.921  -0.718  0.00  0.00    +0.000 C 
BRANCH  34  35
ATOM     35  C15 UNL     1      -5.750   2.861  -0.814  0.00  0.00    +0.000 C 
BRANCH  35  36
ATOM     36  O1  UNL     1      -6.885   3.218  -0.087  0.00  0.00    +0.000 OA
ATOM     37  H21 UNL     1      -7.093   4.162  -0.343  0.00  0.00    +0.000 HD
ENDBRANCH  35  36
ENDBRANCH  34  35
ENDBRANCH  31  34
ENDBRANCH  29  31
ENDBRANCH   4  29
TORSDOF 7
