REMARK  Name = aganitha_data/bbio_mols_pdbqt/BB_40.pdb
REMARK  10 active torsions:
REMARK  status: ('A' for Active; 'I' for Inactive)
REMARK    1  A    between atoms: C4_4  and  N3_33
REMARK    2  A    between atoms: C9_10  and  C10_11
REMARK    3  A    between atoms: C12_13  and  S1_17
REMARK    4  A    between atoms: S1_17  and  N2_18
REMARK    5  A    between atoms: N2_18  and  C16_19
REMARK    6  A    between atoms: C16_19  and  C17_20
REMARK    7  A    between atoms: C16_19  and  C18_21
REMARK    8  A    between atoms: C16_19  and  C19_22
REMARK    9  A    between atoms: N3_33  and  S2_34
REMARK   10  A    between atoms: S2_34  and  C27_35
REMARK                            x       y       z     vdW  Elec       q    Type
REMARK                         _______ _______ _______ _____ _____    ______ ____
ROOT
ATOM      1  C1  UNL     1      -1.397  -0.737   0.204  0.00  0.00    +0.000 A 
ATOM      2  C2  UNL     1      -0.855  -1.984  -0.124  0.00  0.00    +0.000 A 
ATOM      3  C3  UNL     1      -1.633  -2.898  -0.760  0.00  0.00    +0.000 A 
ATOM      4  C4  UNL     1      -2.944  -2.605  -1.082  0.00  0.00    +0.000 A 
ATOM      5  C5  UNL     1      -3.522  -1.376  -0.772  0.00  0.00    +0.000 A 
ATOM      6  C6  UNL     1      -2.733  -0.451  -0.127  0.00  0.00    +0.000 A 
ATOM      7  C7  UNL     1      -2.980   0.922   0.398  0.00  0.00    +0.000 C 
ATOM      8  C8  UNL     1      -1.994   0.987   1.561  0.00  0.00    +0.000 C 
ATOM      9  N1  UNL     1      -0.818   0.369   0.863  0.00  0.00    +0.000 N 
ATOM     10  C9  UNL     1       0.463   0.889   0.874  0.00  0.00    +0.000 C 
ATOM     11  O3  UNL     1       0.664   1.725   1.871  0.00  0.00    +0.000 OA
ATOM     12  C20 UNL     1      -4.404   1.033   0.804  0.00  0.00    +0.000 C 
ATOM     13  C21 UNL     1      -5.231   1.782  -0.242  0.00  0.00    +0.000 C 
ATOM     14  C22 UNL     1      -4.772   3.212  -0.295  0.00  0.00    +0.000 C 
ATOM     15  C23 UNL     1      -3.285   3.289  -0.014  0.00  0.00    +0.000 C 
ATOM     16  C24 UNL     1      -2.619   2.014  -0.545  0.00  0.00    +0.000 C 
ATOM     17  C25 UNL     1      -5.376   4.195  -1.214  0.00  0.00    +0.000 C 
ATOM     18  C26 UNL     1      -5.671   4.271   0.239  0.00  0.00    +0.000 C 
ENDROOT
BRANCH  10  19
ATOM     19  C10 UNL     1       1.598   0.708   0.035  0.00  0.00    +0.000 A 
ATOM     20  C11 UNL     1       2.826   1.220   0.428  0.00  0.00    +0.000 A 
ATOM     21  C12 UNL     1       3.979   1.146  -0.333  0.00  0.00    +0.000 A 
ATOM     22  C13 UNL     1       3.835   0.512  -1.550  0.00  0.00    +0.000 A 
ATOM     23  C14 UNL     1       2.639  -0.009  -1.978  0.00  0.00    +0.000 A 
ATOM     24  C15 UNL     1       1.536   0.102  -1.171  0.00  0.00    +0.000 A 
BRANCH  21  25
ATOM     25  S1  UNL     1       5.496   1.826   0.209  0.00  0.00    +0.000 S 
ATOM     26  O1  UNL     1       6.294   2.157  -1.045  0.00  0.00    +0.000 OA
ATOM     27  O2  UNL     1       5.229   3.161   0.862  0.00  0.00    +0.000 OA
BRANCH  25  28
ATOM     28  N2  UNL     1       6.436   0.804   1.169  0.00  0.00    +0.000 NA
ATOM     29  H10 UNL     1       5.911   0.562   2.053  0.00  0.00    +0.000 HD
BRANCH  28  30
ATOM     30  C16 UNL     1       6.879  -0.412   0.585  0.00  0.00    +0.000 C 
ATOM     31  C17 UNL     1       7.691  -0.212  -0.677  0.00  0.00    +0.000 C 
ATOM     32  C18 UNL     1       5.771  -1.392   0.272  0.00  0.00    +0.000 C 
ATOM     33  C19 UNL     1       7.834  -1.074   1.596  0.00  0.00    +0.000 C 
ENDBRANCH  28  30
ENDBRANCH  25  28
ENDBRANCH  21  25
ENDBRANCH  10  19
BRANCH   4  34
ATOM     34  N3  UNL     1      -3.696  -3.602  -1.751  0.00  0.00    +0.000 N 
ATOM     35  H32 UNL     1      -4.269  -3.330  -2.588  0.00  0.00    +0.000 HD
BRANCH  34  36
ATOM     36  S2  UNL     1      -3.685  -5.229  -1.222  0.00  0.00    +0.000 S 
ATOM     37  C27 UNL     1      -4.337  -5.304   0.434  0.00  0.00    +0.000 C 
ATOM     38  O4  UNL     1      -4.627  -6.051  -2.082  0.00  0.00    +0.000 OA
ATOM     39  O5  UNL     1      -2.342  -5.863  -1.247  0.00  0.00    +0.000 OA
ENDBRANCH  34  36
ENDBRANCH   4  34
TORSDOF 6
