REMARK  Name = aganitha_data/bbio_mols_pdbqt/BB_44.pdb
REMARK  8 active torsions:
REMARK  status: ('A' for Active; 'I' for Inactive)
REMARK    1  A    between atoms: C1_1  and  C16_22
REMARK    2  A    between atoms: C4_4  and  N2_15
REMARK    3  A    between atoms: C6_6  and  N1_7
REMARK    4  A    between atoms: N2_15  and  S1_16
REMARK    5  A    between atoms: S1_16  and  C14_17
REMARK    6  A    between atoms: C14_17  and  C15_18
REMARK    7  A    between atoms: C15_18  and  O1_19
REMARK    8  A    between atoms: C20_27  and  N4_28
REMARK                            x       y       z     vdW  Elec       q    Type
REMARK                         _______ _______ _______ _____ _____    ______ ____
ROOT
ATOM      1  C1  UNL     1      -0.040  -0.099  -1.043  0.00  0.00    +0.000 A 
ATOM      2  C2  UNL     1       0.774  -1.181  -1.168  0.00  0.00    +0.000 A 
ATOM      3  C3  UNL     1       2.088  -1.179  -0.703  0.00  0.00    +0.000 A 
ATOM      4  C4  UNL     1       2.625  -0.076  -0.092  0.00  0.00    +0.000 A 
ATOM      5  C5  UNL     1       1.788   1.015   0.028  0.00  0.00    +0.000 A 
ATOM      6  C6  UNL     1       0.472   1.038  -0.429  0.00  0.00    +0.000 A 
ENDROOT
BRANCH   6   7
ATOM      7  N1  UNL     1      -0.315   2.202  -0.266  0.00  0.00    +0.000 N 
ATOM      8  C7  UNL     1      -1.486   2.180   0.543  0.00  0.00    +0.000 C 
ATOM      9  C8  UNL     1      -2.370   3.340   0.161  0.00  0.00    +0.000 C 
ATOM     10  C9  UNL     1      -1.644   4.623   0.432  0.00  0.00    +0.000 C 
ATOM     11  C10 UNL     1      -0.254   4.652  -0.136  0.00  0.00    +0.000 C 
ATOM     12  C11 UNL     1       0.081   3.411  -0.920  0.00  0.00    +0.000 C 
ATOM     13  C12 UNL     1      -2.454   5.879   0.162  0.00  0.00    +0.000 C 
ATOM     14  C13 UNL     1      -2.036   5.513   1.537  0.00  0.00    +0.000 C 
ENDBRANCH   6   7
BRANCH   1  15
ATOM     15  C16 UNL     1      -1.417  -0.059  -1.524  0.00  0.00    +0.000 A 
ATOM     16  N3  UNL     1      -1.828   0.964  -2.339  0.00  0.00    +0.000 NA
ATOM     17  C17 UNL     1      -3.063   1.073  -2.826  0.00  0.00    +0.000 A 
ATOM     18  C18 UNL     1      -3.976   0.100  -2.490  0.00  0.00    +0.000 A 
ATOM     19  C19 UNL     1      -3.597  -0.939  -1.674  0.00  0.00    +0.000 A 
ATOM     20  C20 UNL     1      -2.291  -1.043  -1.166  0.00  0.00    +0.000 A 
BRANCH  20  21
ATOM     21  N4  UNL     1      -1.950  -2.130  -0.333  0.00  0.00    +0.000 N 
ATOM     22  C21 UNL     1      -1.514  -1.874   1.015  0.00  0.00    +0.000 C 
ATOM     23  C22 UNL     1      -0.529  -2.891   1.542  0.00  0.00    +0.000 C 
ATOM     24  C23 UNL     1      -0.822  -4.298   1.139  0.00  0.00    +0.000 C 
ATOM     25  C24 UNL     1      -2.075  -4.455   0.344  0.00  0.00    +0.000 C 
ATOM     26  C25 UNL     1      -2.059  -3.473  -0.836  0.00  0.00    +0.000 C 
ATOM     27  F1  UNL     1      -0.886  -5.170   2.225  0.00  0.00    +0.000 F 
ATOM     28  F2  UNL     1       0.244  -4.734   0.341  0.00  0.00    +0.000 F 
ENDBRANCH  20  21
ENDBRANCH   1  15
BRANCH   4  29
ATOM     29  N2  UNL     1       3.949   0.042   0.392  0.00  0.00    +0.000 N 
ATOM     30  H16 UNL     1       4.542   0.877   0.037  0.00  0.00    +0.000 HD
BRANCH  29  31
ATOM     31  S1  UNL     1       4.618  -1.065   1.487  0.00  0.00    +0.000 S 
ATOM     32  O2  UNL     1       5.977  -0.592   1.997  0.00  0.00    +0.000 OA
ATOM     33  O3  UNL     1       3.734  -1.039   2.736  0.00  0.00    +0.000 OA
BRANCH  31  34
ATOM     34  C14 UNL     1       4.722  -2.712   0.909  0.00  0.00    +0.000 C 
BRANCH  34  35
ATOM     35  C15 UNL     1       5.553  -2.757  -0.352  0.00  0.00    +0.000 C 
BRANCH  35  36
ATOM     36  O1  UNL     1       5.676  -4.040  -0.864  0.00  0.00    +0.000 OA
ATOM     37  H21 UNL     1       6.595  -4.158  -1.212  0.00  0.00    +0.000 HD
ENDBRANCH  35  36
ENDBRANCH  34  35
ENDBRANCH  31  34
ENDBRANCH  29  31
ENDBRANCH   4  29
TORSDOF 8
