REMARK  Name = aganitha_data/bbio_mols_pdbqt/BB_41.pdb
REMARK  8 active torsions:
REMARK  status: ('A' for Active; 'I' for Inactive)
REMARK    1  A    between atoms: C1_1  and  C16_22
REMARK    2  A    between atoms: C4_4  and  N2_15
REMARK    3  A    between atoms: C6_6  and  N1_7
REMARK    4  A    between atoms: N2_15  and  S1_16
REMARK    5  A    between atoms: S1_16  and  C14_17
REMARK    6  A    between atoms: C14_17  and  C15_18
REMARK    7  A    between atoms: C15_18  and  O1_19
REMARK    8  A    between atoms: C22_30  and  N4_31
REMARK                            x       y       z     vdW  Elec       q    Type
REMARK                         _______ _______ _______ _____ _____    ______ ____
ROOT
ATOM      1  C1  UNL     1      -0.279  -0.073   0.295  0.00  0.00    +0.000 A 
ATOM      2  C2  UNL     1      -0.149   1.123   1.027  0.00  0.00    +0.000 A 
ATOM      3  C3  UNL     1      -1.232   1.669   1.649  0.00  0.00    +0.000 A 
ATOM      4  C4  UNL     1      -2.490   1.109   1.609  0.00  0.00    +0.000 A 
ATOM      5  C5  UNL     1      -2.618  -0.051   0.901  0.00  0.00    +0.000 A 
ATOM      6  C6  UNL     1      -1.511  -0.640   0.247  0.00  0.00    +0.000 A 
ENDROOT
BRANCH   1   7
ATOM      7  C16 UNL     1       0.933  -0.561  -0.354  0.00  0.00    +0.000 A 
ATOM      8  N3  UNL     1       2.063  -0.264  -0.385  0.00  0.00    +0.000 NA
ATOM      9  C17 UNL     1       3.031  -0.845  -1.048  0.00  0.00    +0.000 A 
ATOM     10  C18 UNL     1       2.686  -1.928  -1.795  0.00  0.00    +0.000 A 
ATOM     11  S2  UNL     1       0.968  -2.038  -1.487  0.00  0.00    +0.000 S 
ATOM     12  C19 UNL     1       3.567  -2.671  -2.563  0.00  0.00    +0.000 A 
ATOM     13  C20 UNL     1       4.914  -2.310  -2.595  0.00  0.00    +0.000 A 
ATOM     14  C21 UNL     1       5.267  -1.212  -1.838  0.00  0.00    +0.000 A 
ATOM     15  C22 UNL     1       4.386  -0.475  -1.076  0.00  0.00    +0.000 A 
BRANCH  15  16
ATOM     16  N4  UNL     1       4.905   0.625  -0.356  0.00  0.00    +0.000 N 
ATOM     17  C23 UNL     1       4.415   1.958  -0.599  0.00  0.00    +0.000 C 
ATOM     18  C24 UNL     1       5.627   2.865  -0.572  0.00  0.00    +0.000 C 
ATOM     19  C25 UNL     1       6.114   2.966   0.834  0.00  0.00    +0.000 C 
ATOM     20  C26 UNL     1       5.932   1.674   1.571  0.00  0.00    +0.000 C 
ATOM     21  C27 UNL     1       5.935   0.455   0.637  0.00  0.00    +0.000 C 
ATOM     22  F1  UNL     1       5.322   3.924   1.479  0.00  0.00    +0.000 F 
ATOM     23  F2  UNL     1       7.419   3.427   0.907  0.00  0.00    +0.000 F 
ENDBRANCH  15  16
ENDBRANCH   1   7
BRANCH   6  24
ATOM     24  N1  UNL     1      -1.749  -1.879  -0.409  0.00  0.00    +0.000 N 
ATOM     25  C7  UNL     1      -1.327  -3.138   0.164  0.00  0.00    +0.000 C 
ATOM     26  C8  UNL     1      -2.644  -3.741   0.687  0.00  0.00    +0.000 C 
ATOM     27  C9  UNL     1      -3.614  -3.945  -0.439  0.00  0.00    +0.000 C 
ATOM     28  C10 UNL     1      -3.722  -2.866  -1.442  0.00  0.00    +0.000 C 
ATOM     29  C11 UNL     1      -2.483  -2.023  -1.661  0.00  0.00    +0.000 C 
ATOM     30  C12 UNL     1      -4.974  -4.456   0.050  0.00  0.00    +0.000 C 
ATOM     31  C13 UNL     1      -4.049  -5.338  -0.717  0.00  0.00    +0.000 C 
ENDBRANCH   6  24
BRANCH   4  32
ATOM     32  N2  UNL     1      -3.627   1.700   2.277  0.00  0.00    +0.000 N 
ATOM     33  H16 UNL     1      -4.238   1.087   2.833  0.00  0.00    +0.000 HD
BRANCH  32  34
ATOM     34  S1  UNL     1      -3.900   3.377   2.113  0.00  0.00    +0.000 S 
ATOM     35  O2  UNL     1      -2.778   4.134   2.753  0.00  0.00    +0.000 OA
ATOM     36  O3  UNL     1      -5.137   3.710   2.920  0.00  0.00    +0.000 OA
BRANCH  34  37
ATOM     37  C14 UNL     1      -4.183   3.852   0.427  0.00  0.00    +0.000 C 
BRANCH  37  38
ATOM     38  C15 UNL     1      -4.413   5.351   0.385  0.00  0.00    +0.000 C 
BRANCH  38  39
ATOM     39  O1  UNL     1      -5.497   5.750   1.134  0.00  0.00    +0.000 OA
ATOM     40  H21 UNL     1      -6.316   5.344   0.751  0.00  0.00    +0.000 HD
ENDBRANCH  38  39
ENDBRANCH  37  38
ENDBRANCH  34  37
ENDBRANCH  32  34
ENDBRANCH   4  32
TORSDOF 8
