REMARK  Name = aganitha_data/bbio_mols_pdbqt/BB_42.pdb
REMARK  8 active torsions:
REMARK  status: ('A' for Active; 'I' for Inactive)
REMARK    1  A    between atoms: C1_1  and  C16_22
REMARK    2  A    between atoms: C4_4  and  N2_15
REMARK    3  A    between atoms: C6_6  and  N1_7
REMARK    4  A    between atoms: N2_15  and  S1_16
REMARK    5  A    between atoms: S1_16  and  C14_17
REMARK    6  A    between atoms: C14_17  and  C15_18
REMARK    7  A    between atoms: C15_18  and  O1_19
REMARK    8  A    between atoms: C22_30  and  N4_31
REMARK                            x       y       z     vdW  Elec       q    Type
REMARK                         _______ _______ _______ _____ _____    ______ ____
ROOT
ATOM      1  C1  UNL     1      -0.350   0.864  -0.726  0.00  0.00    +0.000 A 
ATOM      2  C2  UNL     1      -0.233   1.944  -1.561  0.00  0.00    +0.000 A 
ATOM      3  C3  UNL     1      -1.347   2.481  -2.160  0.00  0.00    +0.000 A 
ATOM      4  C4  UNL     1      -2.645   1.956  -1.949  0.00  0.00    +0.000 A 
ATOM      5  C5  UNL     1      -2.733   0.884  -1.114  0.00  0.00    +0.000 A 
ATOM      6  C6  UNL     1      -1.575   0.350  -0.511  0.00  0.00    +0.000 A 
ENDROOT
BRANCH   1   7
ATOM      7  C16 UNL     1       0.808   0.216  -0.063  0.00  0.00    +0.000 A 
ATOM      8  S2  UNL     1       2.473   0.946  -0.373  0.00  0.00    +0.000 S 
ATOM      9  C17 UNL     1       3.326  -0.274   0.660  0.00  0.00    +0.000 A 
ATOM     10  C18 UNL     1       2.271  -1.039   1.083  0.00  0.00    +0.000 A 
ATOM     11  N3  UNL     1       1.095  -0.685   0.652  0.00  0.00    +0.000 NA
ATOM     12  C19 UNL     1       2.626  -2.100   1.923  0.00  0.00    +0.000 A 
ATOM     13  C20 UNL     1       3.930  -2.328   2.274  0.00  0.00    +0.000 A 
ATOM     14  C21 UNL     1       4.965  -1.549   1.838  0.00  0.00    +0.000 A 
ATOM     15  C22 UNL     1       4.666  -0.482   1.001  0.00  0.00    +0.000 A 
BRANCH  15  16
ATOM     16  N4  UNL     1       5.654   0.405   0.489  0.00  0.00    +0.000 N 
ATOM     17  C23 UNL     1       5.761   0.541  -0.949  0.00  0.00    +0.000 C 
ATOM     18  C24 UNL     1       7.168   0.153  -1.343  0.00  0.00    +0.000 C 
ATOM     19  C25 UNL     1       8.157   0.991  -0.593  0.00  0.00    +0.000 C 
ATOM     20  C26 UNL     1       7.544   1.875   0.453  0.00  0.00    +0.000 C 
ATOM     21  C27 UNL     1       6.546   1.168   1.316  0.00  0.00    +0.000 C 
ATOM     22  F1  UNL     1       8.812   1.793  -1.508  0.00  0.00    +0.000 F 
ATOM     23  F2  UNL     1       9.141   0.201  -0.004  0.00  0.00    +0.000 F 
ENDBRANCH  15  16
ENDBRANCH   1   7
BRANCH   6  24
ATOM     24  N1  UNL     1      -1.773  -0.740   0.356  0.00  0.00    +0.000 N 
ATOM     25  C7  UNL     1      -1.576  -0.616   1.777  0.00  0.00    +0.000 C 
ATOM     26  C8  UNL     1      -2.954  -0.715   2.463  0.00  0.00    +0.000 C 
ATOM     27  C9  UNL     1      -3.674  -1.891   1.891  0.00  0.00    +0.000 C 
ATOM     28  C10 UNL     1      -2.805  -2.785   1.063  0.00  0.00    +0.000 C 
ATOM     29  C11 UNL     1      -2.194  -2.032  -0.130  0.00  0.00    +0.000 C 
ATOM     30  C12 UNL     1      -5.121  -1.845   1.564  0.00  0.00    +0.000 C 
ATOM     31  C13 UNL     1      -4.683  -2.505   2.826  0.00  0.00    +0.000 C 
ENDBRANCH   6  24
BRANCH   4  32
ATOM     32  N2  UNL     1      -3.727   2.576  -2.627  0.00  0.00    +0.000 N 
ATOM     33  H16 UNL     1      -3.771   3.637  -2.544  0.00  0.00    +0.000 HD
BRANCH  32  34
ATOM     34  S1  UNL     1      -4.881   1.728  -3.515  0.00  0.00    +0.000 S 
ATOM     35  O2  UNL     1      -4.127   1.019  -4.652  0.00  0.00    +0.000 OA
ATOM     36  O3  UNL     1      -5.770   2.763  -4.216  0.00  0.00    +0.000 OA
BRANCH  34  37
ATOM     37  C14 UNL     1      -5.879   0.582  -2.645  0.00  0.00    +0.000 C 
BRANCH  37  38
ATOM     38  C15 UNL     1      -6.699   1.189  -1.561  0.00  0.00    +0.000 C 
BRANCH  38  39
ATOM     39  O1  UNL     1      -5.972   1.826  -0.588  0.00  0.00    +0.000 OA
ATOM     40  H21 UNL     1      -6.329   2.707  -0.318  0.00  0.00    +0.000 HD
ENDBRANCH  38  39
ENDBRANCH  37  38
ENDBRANCH  34  37
ENDBRANCH  32  34
ENDBRANCH   4  32
TORSDOF 8
