REMARK  Name = aganitha_data/bbio_mols_pdbqt/BB_9.pdb
REMARK  17 active torsions:
REMARK  status: ('A' for Active; 'I' for Inactive)
REMARK    1  A    between atoms: C1_1  and  N1_2
REMARK    2  A    between atoms: N1_2  and  C2_3
REMARK    3  A    between atoms: N1_2  and  S1_4
REMARK    4  A    between atoms: S1_4  and  C3_5
REMARK    5  A    between atoms: C5_7  and  C6_8
REMARK    6  A    between atoms: C7_9  and  O1_10
REMARK    7  A    between atoms: O1_10  and  C8_11
REMARK    8  A    between atoms: C8_11  and  C9_12
REMARK    9  A    between atoms: C11_14  and  C12_15
REMARK   10  A    between atoms: C12_15  and  N2_16
REMARK   11  A    between atoms: N2_16  and  C13_17
REMARK   12  A    between atoms: N2_16  and  S2_18
REMARK   13  A    between atoms: S2_18  and  C14_20
REMARK   14  A    between atoms: C17_23  and  C18_24
REMARK   15  A    between atoms: C18_24  and  C19_25
REMARK   16  A    between atoms: C18_24  and  C20_26
REMARK   17  A    between atoms: C18_24  and  C21_27
REMARK                            x       y       z     vdW  Elec       q    Type
REMARK                         _______ _______ _______ _____ _____    ______ ____
ROOT
ATOM      1  C9  UNL     1       1.550  -0.111   0.393  0.00  0.00    +0.000 A 
ATOM      2  C10 UNL     1       0.204   0.151   0.513  0.00  0.00    +0.000 A 
ATOM      3  C11 UNL     1      -0.676  -0.724   1.113  0.00  0.00    +0.000 A 
ATOM      4  C24 UNL     1      -0.118  -1.917   1.605  0.00  0.00    +0.000 A 
ATOM      5  C25 UNL     1       1.223  -2.171   1.483  0.00  0.00    +0.000 A 
ATOM      6  C26 UNL     1       2.084  -1.281   0.879  0.00  0.00    +0.000 A 
ENDROOT
BRANCH   1   7
ATOM      7  C8  UNL     1       2.402   0.901  -0.278  0.00  0.00    +0.000 C 
BRANCH   7   8
ATOM      8  O1  UNL     1       3.694   0.783  -0.249  0.00  0.00    +0.000 OA
BRANCH   8  13
ATOM      9  C3  UNL     1       7.612  -0.327  -0.553  0.00  0.00    +0.000 A 
ATOM     10  C4  UNL     1       7.270   0.864   0.041  0.00  0.00    +0.000 A 
ATOM     11  C5  UNL     1       5.947   1.234   0.141  0.00  0.00    +0.000 A 
ATOM     12  C6  UNL     1       5.593   2.542   0.795  0.00  0.00    +0.000 C 
ATOM     13  C7  UNL     1       4.923   0.425  -0.351  0.00  0.00    +0.000 A 
ATOM     14  C27 UNL     1       5.325  -0.757  -0.937  0.00  0.00    +0.000 A 
ATOM     15  C28 UNL     1       6.639  -1.141  -1.044  0.00  0.00    +0.000 A 
BRANCH   9  16
ATOM     16  S1  UNL     1       9.279  -0.841  -0.698  0.00  0.00    +0.000 S 
ATOM     17  O4  UNL     1       9.412  -2.185  -0.063  0.00  0.00    +0.000 OA
ATOM     18  O5  UNL     1       9.626  -1.037  -2.159  0.00  0.00    +0.000 OA
BRANCH  16  20
ATOM     19  C1  UNL     1      10.401   1.564  -0.643  0.00  0.00    +0.000 C 
ATOM     20  N1  UNL     1      10.386   0.278  -0.040  0.00  0.00    +0.000 NA
ATOM     21  C2  UNL     1      11.713  -0.266   0.107  0.00  0.00    +0.000 C 
ENDBRANCH  16  20
ENDBRANCH   9  16
ENDBRANCH   8  13
ENDBRANCH   7   8
ENDBRANCH   1   7
BRANCH   3  22
ATOM     22  C12 UNL     1      -2.118  -0.544   1.299  0.00  0.00    +0.000 C 
BRANCH  22  23
ATOM     23  N2  UNL     1      -2.947  -1.065   0.227  0.00  0.00    +0.000 NA
ATOM     24  C13 UNL     1      -2.344  -2.176  -0.468  0.00  0.00    +0.000 C 
BRANCH  23  25
ATOM     25  S2  UNL     1      -3.484   0.179  -0.820  0.00  0.00    +0.000 S 
ATOM     26  O2  UNL     1      -3.157  -0.159  -2.271  0.00  0.00    +0.000 OA
ATOM     27  O3  UNL     1      -2.863   1.487  -0.496  0.00  0.00    +0.000 OA
BRANCH  25  28
ATOM     28  C14 UNL     1      -5.240   0.258  -0.634  0.00  0.00    +0.000 A 
ATOM     29  C15 UNL     1      -6.094   0.294  -1.731  0.00  0.00    +0.000 A 
ATOM     30  C16 UNL     1      -7.475   0.306  -1.536  0.00  0.00    +0.000 A 
ATOM     31  C17 UNL     1      -8.053   0.284  -0.279  0.00  0.00    +0.000 A 
ATOM     32  C22 UNL     1      -7.190   0.248   0.811  0.00  0.00    +0.000 A 
ATOM     33  C23 UNL     1      -5.803   0.236   0.618  0.00  0.00    +0.000 A 
BRANCH  31  34
ATOM     34  C18 UNL     1      -9.514   0.275  -0.106  0.00  0.00    +0.000 C 
ATOM     35  C19 UNL     1      -9.999  -1.021   0.524  0.00  0.00    +0.000 C 
ATOM     36  C20 UNL     1     -10.209   0.468  -1.416  0.00  0.00    +0.000 C 
ATOM     37  C21 UNL     1      -9.906   1.382   0.849  0.00  0.00    +0.000 C 
ENDBRANCH  31  34
ENDBRANCH  25  28
ENDBRANCH  23  25
ENDBRANCH  22  23
ENDBRANCH   3  22
TORSDOF 10
